
  EPA STORM WATER MANAGEMENT MODEL - VERSION 5.1 (Build 5.1.012)
  --------------------------------------------------------------

  WARNING 08: elevation drop exceeds length for Conduit C1
  WARNING 08: elevation drop exceeds length for Conduit C2
  WARNING 08: elevation drop exceeds length for Conduit C5
  WARNING 02: maximum depth increased for Node J1
  
  *************
  Element Count
  *************
  Number of rain gages ...... 1
  Number of subcatchments ... 165
  Number of nodes ........... 213
  Number of links ........... 213
  Number of pollutants ...... 0
  Number of land uses ....... 0
  
  
  ****************
  Raingage Summary
  ****************
                                                      Data       Recording
  Name                 Data Source                    Type       Interval 
  ------------------------------------------------------------------------
  SCS~Type~II,~10-yr   2yr12hr                        CUMULATIVE   6 min.
  
  
  ********************
  Subcatchment Summary
  ********************
  Name                       Area     Width   %Imperv    %Slope Rain Gage            Outlet              
  -----------------------------------------------------------------------------------------------------------
  E133394#1                  1.66      1.00     42.00  100.0000 SCS~Type~II,~10-yr   E133394             
  E133401#1                  2.31      1.00     76.00  100.0000 SCS~Type~II,~10-yr   E133401             
  E133464#1                  2.29      1.00     75.00  100.0000 SCS~Type~II,~10-yr   E133464             
  E133473#1                  1.30      1.00     90.00  100.0000 SCS~Type~II,~10-yr   E133473             
  E133474#1                  1.71      1.00     79.00  100.0000 SCS~Type~II,~10-yr   E133474             
  E133478#1                  1.19      1.00     80.00  100.0000 SCS~Type~II,~10-yr   E133478             
  E133481#1                  4.44      1.00     55.00  100.0000 SCS~Type~II,~10-yr   E133481             
  E133483#1                  3.68      1.00     77.00  100.0000 SCS~Type~II,~10-yr   E133483             
  E134007#1                  1.55      1.00     35.00  100.0000 SCS~Type~II,~10-yr   E134007             
  E134010#1                  0.52      1.00     41.00  100.0000 SCS~Type~II,~10-yr   E134010             
  E134011#1                  3.17      1.00     49.00  100.0000 SCS~Type~II,~10-yr   E134011             
  E134203#1                  2.58      1.00     85.00  100.0000 SCS~Type~II,~10-yr   E134203             
  E134212#1                  1.21      1.00     69.00  100.0000 SCS~Type~II,~10-yr   E134212             
  E134213#1                  0.40      1.00     93.00  100.0000 SCS~Type~II,~10-yr   E134213             
  E134217#1                  1.54      1.00     77.00  100.0000 SCS~Type~II,~10-yr   E134217             
  E134219#1                  2.39      1.00     71.00  100.0000 SCS~Type~II,~10-yr   E134219             
  E134222#1                  2.43      1.00     16.00  100.0000 SCS~Type~II,~10-yr   E134222             
  E134224.2#1                2.26      1.00     14.00  100.0000 SCS~Type~II,~10-yr   E134224.2           
  E134250#1                  4.14      1.00     46.00  100.0000 SCS~Type~II,~10-yr   E134250             
  E134255#1                  2.71      1.00     44.00  100.0000 SCS~Type~II,~10-yr   E134255             
  E134257#1                  2.50      1.00     42.00  100.0000 SCS~Type~II,~10-yr   E134257             
  E134262#1                  0.22      1.00     20.00  100.0000 SCS~Type~II,~10-yr   E134262             
  E134263#1                  3.04      1.00     17.00  100.0000 SCS~Type~II,~10-yr   E134263             
  E134266#1                  0.80      1.00      9.00  100.0000 SCS~Type~II,~10-yr   E134266             
  E134267#1                  1.30      1.00     24.00  100.0000 SCS~Type~II,~10-yr   E134267             
  E134278#1                  1.97      1.00     53.00  100.0000 SCS~Type~II,~10-yr   E134278             
  E134288#1                  1.31      1.00     49.00  100.0000 SCS~Type~II,~10-yr   E134288             
  E143277#1                  0.33      1.00     40.00  100.0000 SCS~Type~II,~10-yr   E143277             
  E143278#1                  1.18      1.00     54.00  100.0000 SCS~Type~II,~10-yr   E143278             
  E143280#1                  2.74      1.00     73.00  100.0000 SCS~Type~II,~10-yr   E143280             
  E143282#1                  0.35      1.00     57.00  100.0000 SCS~Type~II,~10-yr   E143282             
  E143284#1                  1.08      1.00     43.00  100.0000 SCS~Type~II,~10-yr   E143284             
  E143287#1                  0.28      1.00     50.00  100.0000 SCS~Type~II,~10-yr   E143287             
  E143288#1                  2.35      1.00     38.00  100.0000 SCS~Type~II,~10-yr   E143288             
  E143289#1                  1.17      1.00     44.00  100.0000 SCS~Type~II,~10-yr   E143289             
  E143300#1                  2.65      1.00     42.00  100.0000 SCS~Type~II,~10-yr   E143300             
  E143304#1                  0.69      1.00     44.00  100.0000 SCS~Type~II,~10-yr   E143304             
  E143314#1                  2.33      1.00     48.00  100.0000 SCS~Type~II,~10-yr   E143314             
  E143315#1                  3.35      1.00     43.00  100.0000 SCS~Type~II,~10-yr   E143315             
  E143319#1                  1.45      1.00     57.00  100.0000 SCS~Type~II,~10-yr   E143319             
  E143321#1                  2.01      1.00     53.00  100.0000 SCS~Type~II,~10-yr   E143321             
  E143327#1                  1.74      1.00     77.00  100.0000 SCS~Type~II,~10-yr   E143327             
  E143329#1                  2.35      1.00     84.00  100.0000 SCS~Type~II,~10-yr   E143329             
  E143335#1                  0.90      1.00     82.00  100.0000 SCS~Type~II,~10-yr   E143335             
  E143339#1                  2.27      1.00     71.00  100.0000 SCS~Type~II,~10-yr   E143339             
  E143340#1                  0.27      1.00     84.00  100.0000 SCS~Type~II,~10-yr   E143340             
  E143352#1                  0.64      1.00     92.00  100.0000 SCS~Type~II,~10-yr   E143352             
  E143356#1                  1.43      1.00     86.00  100.0000 SCS~Type~II,~10-yr   E143356             
  E143358#1                  1.32      1.00     79.00  100.0000 SCS~Type~II,~10-yr   E143358             
  E143361#1                  1.50      1.00     50.00  100.0000 SCS~Type~II,~10-yr   E143361             
  E143366#1                  0.69      1.00     14.00  100.0000 SCS~Type~II,~10-yr   E143366             
  E143369#1                  2.06      1.00     43.00  100.0000 SCS~Type~II,~10-yr   E143369             
  E143373#1                  0.54      1.00     90.00  100.0000 SCS~Type~II,~10-yr   E143373             
  E143393#1                 10.89      1.00     18.00  100.0000 SCS~Type~II,~10-yr   E143393             
  E144050#1                  0.63      1.00     63.00  100.0000 SCS~Type~II,~10-yr   E144050             
  E144272#1                  4.22      1.00     81.00  100.0000 SCS~Type~II,~10-yr   E144272             
  E145010#1                  0.17      1.00     65.00  100.0000 SCS~Type~II,~10-yr   E145010             
  E145011#1                  0.20      1.00     69.00  100.0000 SCS~Type~II,~10-yr   E145011             
  E146002#1                  0.29      1.00     68.00  100.0000 SCS~Type~II,~10-yr   E146002             
  E146003#1                  1.35      1.00     58.00  100.0000 SCS~Type~II,~10-yr   E146003             
  F13250#1                   0.26      1.00     69.00  100.0000 SCS~Type~II,~10-yr   F13250              
  F13251#1                   0.58      1.00     65.00  100.0000 SCS~Type~II,~10-yr   F13251              
  F13252#1                   1.23      1.00     49.00  100.0000 SCS~Type~II,~10-yr   F13252              
  F13255#1                   5.52      1.00     43.00  100.0000 SCS~Type~II,~10-yr   F13255              
  F13259#1                   0.45      1.00     72.00  100.0000 SCS~Type~II,~10-yr   F13259              
  F13260#1                   1.61      1.00     66.00  100.0000 SCS~Type~II,~10-yr   F13260              
  F13264#1                   1.43      1.00     46.00  100.0000 SCS~Type~II,~10-yr   F13264              
  F13269#1                   1.80      1.00     48.00  100.0000 SCS~Type~II,~10-yr   F13269              
  F13277#1                   0.53      1.00     66.00  100.0000 SCS~Type~II,~10-yr   F13277              
  F13281#1                   2.81      1.00     67.00  100.0000 SCS~Type~II,~10-yr   F13281              
  F13289#1                   2.63      1.00     89.00  100.0000 SCS~Type~II,~10-yr   F13289              
  F13290#1                   0.14      1.00     68.00  100.0000 SCS~Type~II,~10-yr   F13290              
  F13291#1                   1.07      1.00     75.00  100.0000 SCS~Type~II,~10-yr   F13291              
  F13292#1                   1.00      1.00     90.00  100.0000 SCS~Type~II,~10-yr   F13292              
  F13295#1                   0.37      1.00     88.00  100.0000 SCS~Type~II,~10-yr   F13295              
  F133438#1                  6.96      1.00     71.00  100.0000 SCS~Type~II,~10-yr   F133438             
  F133448#1                  0.58      1.00     79.00  100.0000 SCS~Type~II,~10-yr   F133448             
  F133451#1                  1.84      1.00     67.00  100.0000 SCS~Type~II,~10-yr   F133451             
  F133452#1                  7.83      1.00     73.00  100.0000 SCS~Type~II,~10-yr   F133452             
  F133459#1                  2.76      1.00     84.00  100.0000 SCS~Type~II,~10-yr   F133459             
  F133462#1                  2.34      1.00     92.00  100.0000 SCS~Type~II,~10-yr   F133462             
  F133463#1                  3.35      1.00     80.00  100.0000 SCS~Type~II,~10-yr   F133463             
  F133464#1                  5.17      1.00     80.00  100.0000 SCS~Type~II,~10-yr   F133464             
  F133469#1                  3.76      1.00     78.00  100.0000 SCS~Type~II,~10-yr   F133469             
  F134101#1                  0.98      1.00     84.00  100.0000 SCS~Type~II,~10-yr   F134101             
  F134104#1                  2.61      1.00     70.00  100.0000 SCS~Type~II,~10-yr   F134104             
  F134118#1                  7.38      1.00     29.00  100.0000 SCS~Type~II,~10-yr   F134118             
  F134126#1                  5.00      1.00     53.00  100.0000 SCS~Type~II,~10-yr   F134126             
  F134147#1                  0.89      1.00     35.00  100.0000 SCS~Type~II,~10-yr   F134147             
  F134200#1                  0.73      1.00     92.00  100.0000 SCS~Type~II,~10-yr   F134200             
  F134230#1                  4.03      1.00     83.00  100.0000 SCS~Type~II,~10-yr   F134230             
  F134231#1                  3.65      1.00     83.00  100.0000 SCS~Type~II,~10-yr   F134231             
  F135999#1                  4.18      1.00      8.00  100.0000 SCS~Type~II,~10-yr   F135999             
  F139004#1                  1.94      1.00     49.00  100.0000 SCS~Type~II,~10-yr   F139004             
  F139015#1                  2.01      1.00     21.00  100.0000 SCS~Type~II,~10-yr   F139015             
  F139025#1                  0.37      1.00     53.00  100.0000 SCS~Type~II,~10-yr   F139025             
  F139026#1                  0.63      1.00     73.00  100.0000 SCS~Type~II,~10-yr   F139026             
  F139028#1                  0.42      1.00     84.00  100.0000 SCS~Type~II,~10-yr   F139028             
  F139029#1                  0.82      1.00     65.00  100.0000 SCS~Type~II,~10-yr   F139029             
  F139031#1                  1.49      1.00     76.00  100.0000 SCS~Type~II,~10-yr   F139031             
  F143510#1                  2.99      1.00     67.00  100.0000 SCS~Type~II,~10-yr   F143510             
  F143512#1                  1.54      1.00     46.00  100.0000 SCS~Type~II,~10-yr   F143512             
  F143513#1                  7.53      1.00     15.00  100.0000 SCS~Type~II,~10-yr   F143513             
  F143520#1                  0.83      1.00     17.00  100.0000 SCS~Type~II,~10-yr   F143520             
  F143529#1                  3.17      1.00     10.00  100.0000 SCS~Type~II,~10-yr   F143529             
  F143537#1                  0.37      1.00     21.00  100.0000 SCS~Type~II,~10-yr   F143537             
  F143539#1                  0.34      1.00     14.00  100.0000 SCS~Type~II,~10-yr   F143539             
  F143543#1                  1.26      1.00     16.00  100.0000 SCS~Type~II,~10-yr   F143543             
  F143545#1                  2.64      1.00      5.00  100.0000 SCS~Type~II,~10-yr   F143545             
  F143548#1                  0.57      1.00     22.00  100.0000 SCS~Type~II,~10-yr   F143548             
  F143560#1                  5.72      1.00      7.00  100.0000 SCS~Type~II,~10-yr   F143560             
  F143575#1                  0.82      1.00      4.00  100.0000 SCS~Type~II,~10-yr   F143575             
  F143587#1                  1.18      1.00     10.00  100.0000 SCS~Type~II,~10-yr   F143587             
  F143590#1                  1.23      1.00     13.00  100.0000 SCS~Type~II,~10-yr   F143590             
  F143603#1                  0.81      1.00      8.00  100.0000 SCS~Type~II,~10-yr   F143603             
  F143609#1                  4.97      1.00      3.00  100.0000 SCS~Type~II,~10-yr   F143609             
  F143611.01#1               3.35      1.00     47.00  100.0000 SCS~Type~II,~10-yr   F143611.01          
  F143613#1                  1.82      1.00     44.00  100.0000 SCS~Type~II,~10-yr   F143613             
  F143613.1#1                1.82      1.00     44.00  100.0000 SCS~Type~II,~10-yr   F143613.1           
  F143617#1                  2.35      1.00     14.00  100.0000 SCS~Type~II,~10-yr   F143617             
  F143622#1                  1.14      1.00     10.00  100.0000 SCS~Type~II,~10-yr   F143622             
  F143636#1                  5.95      1.00     10.00  100.0000 SCS~Type~II,~10-yr   F143636             
  F143637#1                  0.41      1.00     20.00  100.0000 SCS~Type~II,~10-yr   F143637             
  F143640#1                  1.32      1.00     60.00  100.0000 SCS~Type~II,~10-yr   F143640             
  F143643#1                  1.79      1.00     14.00  100.0000 SCS~Type~II,~10-yr   F143643             
  F143648#1                  2.35      1.00     41.00  100.0000 SCS~Type~II,~10-yr   F143648             
  F143648.1#1                1.74      1.00     39.00  100.0000 SCS~Type~II,~10-yr   F143648.1           
  F143649#1                  0.35      1.00     61.00  100.0000 SCS~Type~II,~10-yr   F143649             
  F143651#1                  0.27      1.00     72.00  100.0000 SCS~Type~II,~10-yr   F143651             
  F143654.1#1                0.66      1.00      3.00  100.0000 SCS~Type~II,~10-yr   F143654.1           
  F143661#1                  3.37      1.00     50.00  100.0000 SCS~Type~II,~10-yr   F143661             
  F143662#1                  1.68      1.00     54.00  100.0000 SCS~Type~II,~10-yr   F143662             
  F143665#1                  3.30      1.00     33.00  100.0000 SCS~Type~II,~10-yr   F143665             
  F143671#1                  0.92      1.00     17.00  100.0000 SCS~Type~II,~10-yr   F143671             
  F143674#1                  4.54      1.00     17.00  100.0000 SCS~Type~II,~10-yr   F143674             
  F143676#1                  1.10      1.00     26.00  100.0000 SCS~Type~II,~10-yr   F143676             
  F143682.01#1               5.77      1.00     21.00  100.0000 SCS~Type~II,~10-yr   F143682.01          
  F143692#1                  2.08      1.00     64.00  100.0000 SCS~Type~II,~10-yr   F143692             
  F143693#1                  4.76      1.00     56.00  100.0000 SCS~Type~II,~10-yr   F143693             
  F143701#1                  0.39      1.00     65.00  100.0000 SCS~Type~II,~10-yr   F143701             
  F143702#1                  1.06      1.00     51.00  100.0000 SCS~Type~II,~10-yr   F143702             
  F143705#1                  0.34      1.00     55.00  100.0000 SCS~Type~II,~10-yr   F143705             
  F143707#1                  0.59      1.00     59.00  100.0000 SCS~Type~II,~10-yr   F143707             
  F143708#1                  2.68      1.00     34.00  100.0000 SCS~Type~II,~10-yr   F143708             
  F144001#1                  4.54      1.00     52.00  100.0000 SCS~Type~II,~10-yr   F144001             
  F145017#1                  2.17      1.00     70.00  100.0000 SCS~Type~II,~10-yr   F145017             
  F14502#1                   0.45      1.00     38.00  100.0000 SCS~Type~II,~10-yr   F14502              
  F14503#1                   0.52      1.00     27.00  100.0000 SCS~Type~II,~10-yr   F14503              
  F14504#1                   0.69      1.00     21.00  100.0000 SCS~Type~II,~10-yr   F14504              
  F146005#1                  1.27      1.00     15.00  100.0000 SCS~Type~II,~10-yr   F146005             
  F146006#1                  0.76      1.00      7.00  100.0000 SCS~Type~II,~10-yr   F146006             
  F14601#1                   0.15      1.00     11.00  100.0000 SCS~Type~II,~10-yr   F14601              
  F14602#1                   0.47      1.00      5.00  100.0000 SCS~Type~II,~10-yr   F14602              
  F14604#1                   1.06      1.00     16.00  100.0000 SCS~Type~II,~10-yr   F14604              
  F147005#1                  4.57      1.00     52.00  100.0000 SCS~Type~II,~10-yr   F147005             
  F147020#1                  2.04      1.00     65.00  100.0000 SCS~Type~II,~10-yr   F147020             
  F147143#1                  0.78      1.00     62.00  100.0000 SCS~Type~II,~10-yr   F147143             
  F147147#1                  0.22      1.00     52.00  100.0000 SCS~Type~II,~10-yr   F147147             
  F147148#1                  0.05      1.00     49.00  100.0000 SCS~Type~II,~10-yr   F147148             
  F147148.1#1                0.79      1.00     66.00  100.0000 SCS~Type~II,~10-yr   F147148.1           
  F149001.2#1                3.51      1.00     36.00  100.0000 SCS~Type~II,~10-yr   F149001.2           
  F149011#1                  1.08      1.00     69.00  100.0000 SCS~Type~II,~10-yr   F149011             
  F149012#1                  0.81      1.00     29.00  100.0000 SCS~Type~II,~10-yr   F149012             
  F149015#1                  0.58      1.00     39.00  100.0000 SCS~Type~II,~10-yr   F149015             
  F149025#1                  0.06      1.00     39.00  100.0000 SCS~Type~II,~10-yr   F149025             
  
  
  ************
  Node Summary
  ************
                                           Invert      Max.    Ponded    External
  Name                 Type                 Elev.     Depth      Area    Inflow  
  -------------------------------------------------------------------------------
  E133394              JUNCTION             -0.89      5.37       0.0
  E133401              JUNCTION             -0.75      5.30       0.0
  E133464              JUNCTION              3.93      5.50       0.0
  E133473              JUNCTION              4.18      5.32       0.0
  E133474              JUNCTION              5.12      5.14       0.0
  E133478              JUNCTION              6.28      4.00       0.0
  E133481              JUNCTION              6.50      4.00       0.0
  E133483              JUNCTION              5.38      4.54       0.0
  E134007              JUNCTION              1.21      7.49       0.0
  E134010              JUNCTION              2.29      6.55       0.0
  E134011              JUNCTION              3.13      5.79       0.0
  E134203              JUNCTION             -0.35      6.09       0.0
  E134209              JUNCTION              0.61      5.75       0.0
  E134212              JUNCTION              1.41      4.43       0.0
  E134213              JUNCTION              2.09      4.42       0.0
  E134217              JUNCTION              3.46      5.09       0.0
  E134219              JUNCTION              0.81      5.99       0.0
  E134222              JUNCTION              0.87      6.42       0.0
  E134224.1            JUNCTION              4.38      2.42       0.0
  E134224.2            JUNCTION              6.08      2.42       0.0
  E134250              JUNCTION              0.85      8.22       0.0
  E134254              JUNCTION              1.68      5.91       0.0
  E134255              JUNCTION              3.73      4.19       0.0
  E134257              JUNCTION              2.49      4.10       0.0
  E134262              JUNCTION              3.33      4.86       0.0
  E134263              JUNCTION              3.42      3.56       0.0
  E134266              JUNCTION              5.08      3.80       0.0
  E134267              JUNCTION              5.34      3.11       0.0
  E134278              JUNCTION              0.59      6.50       0.0
  E134288              JUNCTION              2.77      5.01       0.0
  E143274              JUNCTION             -3.00      6.41       0.0
  E143277              JUNCTION             -1.05      5.73       0.0
  E143278              JUNCTION              0.66      4.05       0.0
  E143280              JUNCTION             -3.48      8.69       0.0
  E143282              JUNCTION              1.31      4.48       0.0
  E143283              JUNCTION              3.12      2.78       0.0
  E143284              JUNCTION              1.73      5.05       0.0
  E143286              JUNCTION              2.13      5.34       0.0
  E143287              JUNCTION              3.38      3.62       0.0
  E143288              JUNCTION              3.12      4.82       0.0
  E143289              JUNCTION              4.49      3.62       0.0
  E143299              JUNCTION              3.51      5.16       0.0
  E143300              JUNCTION              3.41      5.12       0.0
  E143304              JUNCTION              4.04      3.72       0.0
  E143312              JUNCTION             -2.81      9.54       0.0
  E143313              JUNCTION             -2.51     10.13       0.0
  E143314              JUNCTION             -2.17      8.24       0.0
  E143315              JUNCTION              1.22      5.25       0.0
  E143319              JUNCTION              0.75      5.16       0.0
  E143321              JUNCTION              1.43      4.75       0.0
  E143327              JUNCTION             -1.87      6.00       0.0
  E143329              JUNCTION              0.96      2.98       0.0
  E143335              JUNCTION             -1.75      6.00       0.0
  E143339              JUNCTION             -1.33      5.61       0.0
  E143340              JUNCTION             -0.91      5.96       0.0
  E143351              JUNCTION             -1.68      5.89       0.0
  E143352              JUNCTION             -1.37      5.94       0.0
  E143354              JUNCTION              2.51      3.00       0.0
  E143355              JUNCTION             -1.02      6.49       0.0
  E143356              JUNCTION              1.18      3.99       0.0
  E143358              JUNCTION              1.93      3.94       0.0
  E143361              JUNCTION             -1.63      5.79       0.0
  E143362              JUNCTION              0.70      3.22       0.0
  E143366              JUNCTION             -1.49      6.22       0.0
  E143369              JUNCTION             -1.18      6.69       0.0
  E143373              JUNCTION             -1.21      6.84       0.0
  E143374              JUNCTION              1.12      4.45       0.0
  E143393              JUNCTION             -0.96      5.96       0.0
  E143393.1            JUNCTION              3.70      2.70       0.0
  E144050              JUNCTION             -1.73      5.00       0.0
  E144272              JUNCTION              0.14      7.94       0.0
  E145010              JUNCTION             -2.29      6.79       0.0
  E145011              JUNCTION              3.17      5.52       0.0
  E146002              JUNCTION             -1.99      9.50       0.0
  E146003              JUNCTION             -1.86      7.14       0.0
  E146004              JUNCTION             -1.69      6.00       0.0
  E147013              JUNCTION             -5.31     10.88       0.0
  F13250               JUNCTION              0.62      9.04       0.0
  F13251               JUNCTION              0.96      8.95       0.0
  F13252               JUNCTION              2.08      7.68       0.0
  F13255               JUNCTION              2.63      6.50       0.0
  F13259               JUNCTION              0.97      8.14       0.0
  F13260               JUNCTION              3.95      4.90       0.0
  F13260.01            JUNCTION              4.22      4.68       0.0
  F13260.03            JUNCTION              4.79      5.11       0.0
  F13264               JUNCTION              2.08      8.80       0.0
  F13269               JUNCTION              2.15      8.68       0.0
  F13274               JUNCTION              4.87      6.34       0.0
  F13277               JUNCTION              4.93      6.65       0.0
  F13281               JUNCTION              5.36      5.40       0.0
  F13289               JUNCTION              7.09      3.86       0.0
  F13290               JUNCTION              5.39      6.00       0.0
  F13291               JUNCTION              5.48      4.44       0.0
  F13292               JUNCTION              5.70      4.49       0.0
  F13295               JUNCTION              6.15      4.16       0.0
  F133438              JUNCTION              1.26      5.50       0.0
  F133448              JUNCTION              2.70      6.00       0.0
  F133451              JUNCTION              2.60      6.50       0.0
  F133452              JUNCTION              4.88      4.27       0.0
  F133459              JUNCTION              2.39      6.50       0.0
  F133462              JUNCTION              6.06      2.75       0.0
  F133463              JUNCTION              7.09      3.13       0.0
  F133464              JUNCTION              2.79      6.00       0.0
  F133469              JUNCTION              5.08      5.11       0.0
  F134104              JUNCTION              1.30      4.66       0.0
  F134110              JUNCTION              3.13      4.87       0.0
  F134118              JUNCTION              4.34      3.26       0.0
  F134126              JUNCTION              4.42      3.86       0.0
  F134140              JUNCTION              5.14      4.25       0.0
  F134147              JUNCTION              5.70      3.31       0.0
  F134200              JUNCTION              0.47      5.44       0.0
  F134230              JUNCTION              0.93      5.00       0.0
  F134231              JUNCTION              3.72      4.27       0.0
  F135012              JUNCTION              7.70      3.30       0.0
  F135999              JUNCTION              4.94      4.51       0.0
  F139004              JUNCTION              6.80      4.28       0.0
  F139015              JUNCTION              4.58      4.94       0.0
  F139018              JUNCTION              4.62      2.00       0.0
  F139025              JUNCTION              6.02      2.82       0.0
  F139026              JUNCTION              4.51      3.69       0.0
  F139028              JUNCTION              4.13      3.20       0.0
  F139029              JUNCTION              3.59      2.90       0.0
  F139031              JUNCTION              2.77      3.85       0.0
  F143510              JUNCTION              2.18      4.99       0.0
  F143512              JUNCTION             -1.50      8.60       0.0
  F143513              JUNCTION              1.43      3.73       0.0
  F143520              JUNCTION             -1.04      6.05       0.0
  F143529              JUNCTION             -0.98      5.79       0.0
  F143532              JUNCTION              3.50      3.35       0.0
  F143535              JUNCTION             -0.91      6.44       0.0
  F143537              JUNCTION             -0.87      6.39       0.0
  F143539              JUNCTION              2.49      2.55       0.0
  F143543              JUNCTION             -0.88      6.07       0.0
  F143545              JUNCTION              3.68      4.35       0.0
  F143548              JUNCTION             -3.68     10.15       0.0
  F143553              JUNCTION             -0.82      7.61       0.0
  F143554              JUNCTION              4.04      3.22       0.0
  F143560              JUNCTION              5.94      5.77       0.0
  F143571              JUNCTION              8.98      3.43       0.0
  F143575              JUNCTION             -0.80      8.24       0.0
  F143587              JUNCTION             -0.79      8.53       0.0
  F143590              JUNCTION             -0.16      8.26       0.0
  F143594              JUNCTION              0.02      5.52       0.0
  F143595              JUNCTION              0.19      5.50       0.0
  F143602              JUNCTION             -0.85      7.84       0.0
  F143603              JUNCTION             -0.27      5.82       0.0
  F143609              JUNCTION              4.59      5.52       0.0
  F143611.01           JUNCTION              5.86      4.61       0.0
  F143613              JUNCTION              7.02      3.40       0.0
  F143613.1            JUNCTION              7.20      2.96       0.0
  F143617              JUNCTION             -0.83      7.12       0.0
  F143622              JUNCTION              3.46      4.15       0.0
  F143636              JUNCTION              0.34      5.35       0.0
  F143637              JUNCTION              0.87      5.35       0.0
  F143637.1            JUNCTION             -4.85     11.00       0.0
  F143640              JUNCTION              1.54      4.81       0.0
  F143643              JUNCTION              3.24      3.15       0.0
  F143648              JUNCTION              4.03      3.10       0.0
  F143648.1            JUNCTION              6.20      3.40       0.0
  F143649              JUNCTION              4.77      3.35       0.0
  F143651              JUNCTION              6.22      2.90       0.0
  F143654.1            JUNCTION              0.85      5.50       0.0
  F143656              JUNCTION              1.40      6.34       0.0
  F143661              JUNCTION              1.65      5.64       0.0
  F143662              JUNCTION              1.46      5.72       0.0
  F143665              JUNCTION              1.92      5.50       0.0
  F143670              JUNCTION              3.29      3.58       0.0
  F143671              JUNCTION              3.70      3.58       0.0
  F143674              JUNCTION              3.86      3.91       0.0
  F143676              JUNCTION              4.18      3.82       0.0
  F143682.01           JUNCTION              4.33      4.09       0.0
  F143692              JUNCTION              5.08      3.83       0.0
  F143693              JUNCTION              5.27      5.56       0.0
  F143701              JUNCTION              3.30      7.51       0.0
  F143702              JUNCTION              4.64      6.35       0.0
  F143705              JUNCTION              7.08      4.05       0.0
  F143707              JUNCTION              4.93      6.20       0.0
  F143708              JUNCTION              5.13      5.61       0.0
  F144001              JUNCTION              4.37      4.00       0.0
  F14501.1             JUNCTION              1.00      5.00       0.0
  F145017              JUNCTION              7.45      2.66       0.0
  F14502               JUNCTION              1.32      7.00       0.0
  F14503               JUNCTION              1.19      6.80       0.0
  F14504               JUNCTION              1.55      7.17       0.0
  F146005              JUNCTION              0.76      7.15       0.0
  F146006              JUNCTION              6.87      4.22       0.0
  F14601               JUNCTION              2.46      6.81       0.0
  F14601.1             JUNCTION             -2.21      8.00       0.0
  F146015              JUNCTION              8.66      2.50       0.0
  F14602               JUNCTION              2.47      6.79       0.0
  F14603               JUNCTION              3.23      6.02       0.0
  F14604               JUNCTION              3.80      6.04       0.0
  F147004              JUNCTION              1.16      6.34       0.0
  F147005              JUNCTION              1.03      6.50       0.0
  F147020              JUNCTION              6.05      5.15       0.0
  F147143              JUNCTION              2.25      8.87       0.0
  F147147              JUNCTION              5.24      8.03       0.0
  F147148              JUNCTION              5.90      6.54       0.0
  F147148.1            JUNCTION              6.50      7.75       0.0
  F149001.1            JUNCTION             -4.96     11.00       0.0
  F149001.2            JUNCTION              6.37      3.83       0.0
  F149002.1            JUNCTION             -2.46      8.50       0.0
  F149011              JUNCTION              5.60      5.14       0.0
  F149012              JUNCTION              2.63      9.12       0.0
  F149015              JUNCTION              4.44      7.97       0.0
  F149020              JUNCTION              6.33      3.95       0.0
  F149025              JUNCTION              7.59      3.61       0.0
  F149032              JUNCTION              0.86      6.00       0.0
  St2                  JUNCTION              5.00     10.00       0.0
  J1                   JUNCTION              0.00      5.00       0.0
  E143250              OUTFALL              -3.54      6.00       0.0
  St1                  STORAGE              -5.00     11.00       0.0
  F134101              STORAGE               0.20      6.00       0.0
  
  
  ************
  Link Summary
  ************
  Name             From Node        To Node          Type            Length    %Slope Roughness
  ---------------------------------------------------------------------------------------------
  294              F13264           F13259           CONDUIT          506.9    0.2190    0.0120
  798              F13274           F13269           CONDUIT          105.5    2.5803    0.0120
  799              F13269           F13264           CONDUIT           89.4    0.0783    0.0120
  800              F13277           F13274           CONDUIT          213.1    0.0282    0.0120
  804              F13281           F13277           CONDUIT          165.3    0.2601    0.0120
  807              F13289           F13281           CONDUIT          517.3    0.3344    0.0120
  815              F143702          F143701          CONDUIT           89.6    1.4959    0.0120
  1037             F143707          F143701          CONDUIT          230.1    0.7084    0.0120
  1056             F13251           F13250           CONDUIT           84.5    0.4023    0.0120
  1062             F13255           F13252           CONDUIT          204.1    0.2695    0.0120
  1063             F13252           F13251           CONDUIT           55.8    2.0079    0.0120
  1067             F143705          F143702          CONDUIT          106.2    2.2973    0.0120
  1068             F145017          F143656          CONDUIT          504.0    1.2004    0.0120
  1070             F147020          F143693          CONDUIT          455.2    0.1714    0.0120
  1075             F143692          F143693          CONDUIT          221.9   -0.0856    0.0120
  1120             F143671          F143670          CONDUIT           82.9    0.4947    0.0150
  1127             F143682.01       F143676          CONDUIT          155.9    0.0962    0.0120
  1131             F143676          F143674          CONDUIT           35.7    0.8966    0.0150
  1132             F143674          F143671          CONDUIT           97.0    0.1649    0.0150
  1134             F143665          F143662          CONDUIT          172.9    0.2661    0.0120
  1135             F143662          F143661          CONDUIT           92.8   -0.2047    0.0120
  1142             F143692          F143674          CONDUIT          328.2    0.3717    0.0150
  1145             F144001          F143671          CONDUIT          174.2    0.3847    0.0150
  1165             F143682.01       F143648.1        CONDUIT          322.6   -0.5796    0.0150
  1167             F143648.1        F149001.2        CONDUIT          166.6   -0.1021    0.0140
  1172             F143661          F143656          CONDUIT           44.8    0.5579    0.0120
  1549             F143701          F13250           CONDUIT          262.4    1.0212    0.0120
  1556             F143670          F143665          CONDUIT          187.7    0.7301    0.0150
  8943             F133463          F133462          CONDUIT          254.6    0.4045    0.0120
  9225             F133464          F133459          CONDUIT           45.0    0.8883    0.0140
  9237             E133481          E133478          CONDUIT          133.8    0.1644    0.0150
  9246             F133459          F133448          CONDUIT           56.6   -0.5478    0.0120
  11880            F143553          F143548          CONDUIT          173.2    1.6510    0.0120
  11883            F143575          F143617          CONDUIT          238.5    0.0126    0.0120
  11888            E143355          E143352          CONDUIT           68.0    0.5149    0.0120
  11890            E143358          E143355          CONDUIT           66.2    4.4627    0.0120
  11898            F134140          F135999          CONDUIT          121.7    0.1644    0.0120
  12071            E134262          E134254          CONDUIT          344.0    0.4797    0.0120
  12076            E134010          E134007          CONDUIT          201.2    0.5367    0.0150
  12077            E134011          E134010          CONDUIT          147.7    0.5689    0.0150
  12610            F133452          F133451          CONDUIT          327.9    0.6953    0.0120
  12611            F133451          F133448          CONDUIT          135.6   -0.0737    0.0120
  12615            F134230          F134200          CONDUIT          235.3    0.1955    0.0120
  12646            E134254          E134250          CONDUIT          360.9    0.2300    0.0120
  13146            E134222          E134219          CONDUIT           59.7    0.1005    0.0120
  13151            F134231          F134230          CONDUIT           90.8    3.0755    0.0120
  13185            F143603          F143602          CONDUIT          117.5    0.4937    0.0140
  13207            F143595          F143594          CONDUIT           40.5    0.4193    0.0120
  13450            E143362          E143361          CONDUIT           74.9    3.1140    0.0120
  13629            E133473          E133464          CONDUIT          348.4    0.0718    0.0120
  13661            F133462          F133459          CONDUIT          236.8    1.5500    0.0120
  13672            E133478          E133473          CONDUIT          206.5    1.0170    0.0120
  13675            E133464          F133464          CONDUIT          382.4    0.2981    0.0120
  13703            F133469          E133464          CONDUIT          310.7    0.3701    0.0120
  13752            J1               E133401          CONDUIT          355.6    0.2109    0.0120
  13822            E134267          E134266          CONDUIT           64.3    0.4044    0.0120
  13860            E133474          E133473          CONDUIT          236.9    0.3968    0.0120
  13909            E134217          E134212          CONDUIT           56.0    3.6638    0.0140
  13919            E134257          E134254          CONDUIT           46.8    1.7310    0.0120
  13928            E134255          E134254          CONDUIT           32.0    6.4134    0.0120
  13936            F135012          F135999          CONDUIT          381.3    0.7239    0.0140
  14124            E134212          E134203          CONDUIT           41.2    4.2789    0.0120
  14130            E134213          E134212          CONDUIT           30.1    2.2605    0.0120
  14157            E134203          F134200          CONDUIT          240.0   -0.3417    0.0120
  14182            E134007          E134222          CONDUIT          210.9    0.1612    0.0120
  14185            F134118          F134110          CONDUIT          321.9    0.3759    0.0120
  14193            E134266          E134262          CONDUIT          269.8    0.6487    0.0120
  14194            E134263          E134262          CONDUIT           61.1    0.1472    0.0120
  14205            F134110          F134104          CONDUIT          419.0    0.4368    0.0120
  14208            E134209          E134203          CONDUIT          321.5    0.2986    0.0120
  14212            E134219          E134217          CONDUIT          248.3   -1.0672    0.0120
  14257            F143539          F143537          CONDUIT           68.7    4.8988    0.0150
  14259            F143548          F143543          CONDUIT          242.4   -1.1550    0.0120
  14264            E143351          E144050          CONDUIT           29.4    0.1701    0.0120
  14281            F143532          F143529          CONDUIT          146.1    3.0683    0.0120
  14288            F143537          F143535          CONDUIT           79.4    0.0504    0.0120
  14293            F143535          F143529          CONDUIT           64.3    0.1089    0.0120
  14318            E143288          E143286          CONDUIT          176.2    0.5619    0.0120
  14319            E143287          E143286          CONDUIT           79.5    1.5717    0.0120
  14352            F134200          F134101          CONDUIT           34.0    0.7941    0.0120
  14417            E143300          E143299          CONDUIT          112.2   -0.0891    0.0120
  14418            F143543          F143537          CONDUIT           79.4   -0.0126    0.0120
  14537            F143571          F143560          CONDUIT          308.3    0.9862    0.0140
  14596            F146005          F143603          CONDUIT          166.6    0.6183    0.0140
  14632            E133401          E133394          CONDUIT          300.3    0.0466    0.0120
  14702            E143313          E143312          CONDUIT          208.7    0.1438    0.0120
  14796            E134288          E134278          CONDUIT          219.7    0.9921    0.0120
  14805            E134250          E134278          CONDUIT          281.9    0.0922    0.0120
  14838            E133394          E143393          CONDUIT          140.0    0.0500    0.0120
  14978            E144272          E143373          CONDUIT          425.9    0.3170    0.0120
  15025            E143373          E143369          CONDUIT          205.0   -0.0146    0.0120
  15036            E143374          E143373          CONDUIT           63.1    3.6945    0.0120
  15115            F143587          F143575          CONDUIT          230.2    0.0043    0.0120
  15119            F143590          F143587          CONDUIT          205.7    0.3063    0.0120
  15147            F143554          F143553          CONDUIT           62.2    7.8387    0.0140
  15156            E143369          E143366          CONDUIT          191.9    0.1615    0.0120
  15170            E143356          E143355          CONDUIT           67.5    3.2600    0.0120
  15175            E143304          E143300          CONDUIT          248.7    0.2533    0.0120
  15190            E143354          E143352          CONDUIT           75.7    5.1309    0.0120
  15192            F143617          F143602          CONDUIT           95.6    0.0209    0.0120
  15204            E143361          E143351          CONDUIT           29.3    0.1709    0.0120
  15205            E143352          E143351          CONDUIT          136.0    0.2279    0.0120
  15321            E143299          E143288          CONDUIT          208.3    0.1873    0.0120
  15322            E143289          E143288          CONDUIT           79.3    1.7285    0.0120
  15363            F143637          F143637.1        CONDUIT           64.9    8.8535    0.0120
  15373            F147005          F143637          CONDUIT          223.8    0.0715    0.0120
  15374            F143643          F143640          CONDUIT           86.7    1.9614    0.0120
  15377            F143656          F147005          CONDUIT          245.6    0.1506    0.0120
  15389            F143651          F143649          CONDUIT          249.7    0.5808    0.0120
  15399            E143314          E143313          CONDUIT          301.0    0.1130    0.0120
  15416            F146006          F146005          CONDUIT          237.5    2.5737    0.0140
  15433            F143648          F143643          CONDUIT          211.6    0.3734    0.0120
  15444            E143286          E143284          CONDUIT          148.5    0.2694    0.0120
  15453            E143335          E143327          CONDUIT          109.7    0.1094    0.0120
  15455            F143649          F143648          CONDUIT           34.6    2.1386    0.0120
  15475            E143340          E143339          CONDUIT           71.5    0.5877    0.0120
  15499            E143339          E143335          CONDUIT          141.3    0.2973    0.0120
  15501            F143609          F146005          CONDUIT          265.9    1.4405    0.0140
  15523            E143284          E143282          CONDUIT          236.1    0.1779    0.0120
  15640            E143283          E143282          CONDUIT           47.0    3.8515    0.0120
  15644            E143327          E143314          CONDUIT          288.4    0.1040    0.0120
  15646            F146015          F146006          CONDUIT          347.3    0.5154    0.0140
  15682            F143611.01       F143609          CONDUIT          399.8    0.3177    0.0120
  15689            E143282          E143280          CONDUIT          165.7    2.8918    0.0120
  15766            E143274          E147013          CONDUIT          385.8    0.5987    0.0120
  15819            E143278          E143277          CONDUIT           68.0    2.5144    0.0120
  15911            F143613          F143611.01       CONDUIT          249.5    0.4650    0.0120
  15914            E143312          E143280          CONDUIT          333.9    0.2006    0.0120
  16017            E143280          E143274          CONDUIT          192.3   -0.2496    0.0140
  16032            E143277          E143274          CONDUIT           91.3    2.1363    0.0120
  16132            E147013          E143250          CONDUIT          550.0   -0.3218    0.0120
  21064            E144050          E146003          CONDUIT          100.2    0.1297    0.0120
  21065            E146004          E144050          CONDUIT          244.6    0.0164    0.0120
  21068            E146003          E146002          CONDUIT          118.0    0.1102    0.0120
  21084            E145011          E145010          CONDUIT          112.1    4.8782    0.0120
  21103            F147143          F143510          CONDUIT          139.0    0.0503    0.0120
  21105            F147147          F147143          CONDUIT          222.0    1.3470    0.0120
  21108            F147148          F147147          CONDUIT           83.9    0.7865    0.0120
  21150            F13291           F13290           CONDUIT          173.5    0.0519    0.0120
  21154            F13295           F13292           CONDUIT          108.9    0.4134    0.0120
  21236            F143708          F143707          CONDUIT           89.1    0.2246    0.0120
  21237            F147004          F149032          CONDUIT           79.4    0.3777    0.0120
  21241            F13250           F147004          CONDUIT          273.1   -0.1978    0.0120
  21261            F13259           F13250           CONDUIT          247.1    0.1416    0.0120
  22017            F13260           F13259           CONDUIT           29.1   10.3126    0.0120
  22426            F133438          F134230          CONDUIT          137.1    0.2408    0.0150
  23483            E133483          E133473          CONDUIT          311.1    0.3857    0.0120
  23487            F133448          F133438          CONDUIT          475.8    0.3027    0.0120
  23491            F143602          F143535          CONDUIT          299.8    0.0200    0.0120
  23493            E143366          E143361          CONDUIT           88.5    0.1583    0.0120
  23496            F143529          F143520          CONDUIT           47.5    0.1263    0.0120
  23501            F143520          F143512          CONDUIT           64.2    0.7166    0.0120
  23503            F143513          F143512          CONDUIT           95.6    3.0653    0.0140
  23504            F143510          F143512          CONDUIT            9.5   42.1217    0.0120
  23506            F143512          E146004          CONDUIT          286.0    0.0664    0.0120
  23507            F134126          F134118          CONDUIT          201.6    0.0397    0.0120
  23511            F135999          F134126          CONDUIT          206.6    0.2518    0.0120
  23513            F134104          F134101          CONDUIT           82.0    1.3408    0.0120
  23516            E143321          E143319          CONDUIT          282.0    0.2411    0.0120
  23521            E143319          E143315          CONDUIT          265.2   -0.1772    0.0120
  23540            E146002          E145010          CONDUIT          251.7    0.1192    0.0120
  23541            E145010          E143339          CONDUIT           53.6   -1.7910    0.0120
  23544            E143329          E143327          CONDUIT          235.8    1.2000    0.0120
  23560            E143393          E143369          CONDUIT          257.1    0.0856    0.0120
  23563            F143636          F143595          CONDUIT           18.3    0.8197    0.0120
  23564            F143594          F143590          CONDUIT           57.9    0.3112    0.0120
  23566            F143575          F143553          CONDUIT           56.4    0.0354    0.0120
  23567            F143560          F143575          CONDUIT          320.4    2.1041    0.0140
  23570            E134278          E144272          CONDUIT          339.6    0.1325    0.0120
  23644            F13292           F13291           CONDUIT           88.6    0.2484    0.0120
  23646            F139015          F139004          CONDUIT          405.8   -0.5471    0.0120
  23647            F139025          F139026          CONDUIT          164.4    0.9184    0.0120
  23648            F139026          F139028          CONDUIT          139.9    0.2716    0.0120
  23650            F139028          F139029          CONDUIT          253.4    0.2131    0.0120
  23655            F139029          F139031          CONDUIT          236.2    0.3472    0.0120
  23657            F139031          E134213          CONDUIT          274.7    0.2475    0.0120
  23673            F139015          F139018          CONDUIT           97.1   -0.0412    0.0120
  23677            F134147          F134140          CONDUIT          290.6    0.1927    0.0120
  23678            F14504           F14503           CONDUIT          107.3    0.3354    0.0120
  23679            F14503           F14502           CONDUIT           34.6   -0.3754    0.0120
  23682            F14502           F14501.1         CONDUIT           82.6    0.3876    0.0120
  23689            F143654.1        F143637.1        CONDUIT          100.4    5.6848    0.0120
  23690            F143637.1        F149001.1        CONDUIT           56.1    0.1960    0.0120
  23693            F14602           F14601           CONDUIT           33.5    0.0299    0.0120
  23694            F14604           F14603           CONDUIT          110.0    0.5180    0.0120
  23695            F14603           F14602           CONDUIT           54.6    1.3908    0.0120
  23709            F143613.1        F143613          CONDUIT          164.9    0.1091    0.0120
  23732            F13260.03        F13260.01        CONDUIT          191.0    0.2985    0.0120
  23734            F13260.01        F13260           CONDUIT           91.2    0.2960    0.0120
  23753            F143640          F149002.1        CONDUIT           58.0    6.9070    0.0120
  23754            F14601           F14601.1         CONDUIT           55.1    8.4999    0.0120
  23760            F149025          F149011          CONDUIT          303.2    0.6563    0.0140
  23761            F149011          F149012          CONDUIT           56.1    5.3025    0.0140
  23762            F149012          F13252           CONDUIT          171.1    0.3215    0.0140
  23771            F149020          F149015          CONDUIT          368.1    0.5135    0.0140
  23774            F149015          F149012          CONDUIT          263.4    0.6872    0.0140
  23780            F143545          F143543          CONDUIT          166.1    2.7472    0.0150
  23784            F143622          F143575          CONDUIT           86.7    4.9183    0.0140
  23792            E143315          E143314          CONDUIT          221.0    1.5343    0.0120
  23800            E143393.1        E143393          CONDUIT          130.0    3.5869    0.0120
  23811            E134224.2        E134224.1        CONDUIT          227.8    0.7462    0.0120
  23812            E134224.1        E134222          CONDUIT          100.0    3.5132    0.0120
  23820            F147148.1        F147148          CONDUIT           60.3    0.9947    0.0120
  23833            F13290           F13281           CONDUIT           77.6    0.0387    0.0120
  C1               F149032          St1              CONDUIT            1.0  586.0000    0.0100
  C2               F14501.1         St1              CONDUIT            1.0  600.0000    0.0100
  C3               F14601.1         St1              CONDUIT           40.0    6.9920    0.0100
  C4               F149001.1        St1              CONDUIT            1.0    4.0032    0.0100
  C5               F149002.1        St1              CONDUIT            1.0  254.0000    0.0100
  C7               F139018          St2              CONDUIT          400.0   -0.0950    0.0100
  C8               St2              F134147          CONDUIT          400.0   -0.1750    0.0100
  R1               F134101          J1               ORIFICE     
  C6               St1              F143595          ORIFICE     
  
  
  *********************
  Cross Section Summary
  *********************
                                        Full     Full     Hyd.     Max.   No. of     Full
  Conduit          Shape               Depth     Area     Rad.    Width  Barrels     Flow
  ---------------------------------------------------------------------------------------
  294              CIRCULAR             4.00    12.57     1.00     4.00        1    72.82
  798              CIRCULAR             3.50     9.62     0.88     3.50        1   175.08
  799              CIRCULAR             3.50     9.62     0.88     3.50        1    30.50
  800              CIRCULAR             3.00     7.07     0.75     3.00        1    12.12
  804              HORIZ_ELLIPSE        3.75    17.85     1.15     2.42        1   123.58
  807              CIRCULAR             1.50     1.77     0.38     1.50        1     6.58
  815              CIRCULAR             2.00     3.14     0.50     2.00        1    29.97
  1037             CIRCULAR             2.00     3.14     0.50     2.00        1    20.63
  1056             CIRCULAR             3.00     7.07     0.75     3.00        1    45.83
  1062             CIRCULAR             3.00     7.07     0.75     3.00        1    37.51
  1063             CIRCULAR             3.50     9.62     0.88     3.50        1   154.45
  1067             CIRCULAR             1.25     1.23     0.31     1.25        1    10.61
  1068             CIRCULAR             1.25     1.23     0.31     1.25        1     7.67
  1070             CIRCULAR             2.50     4.91     0.62     2.50        1    18.39
  1075             CIRCULAR             2.50     4.91     0.62     2.50        1    13.00
  1120             HORIZ_ELLIPSE        3.58    16.29     1.10     2.25        1   120.74
  1127             CIRCULAR             2.00     3.14     0.50     2.00        1     7.60
  1131             HORIZ_ELLIPSE        2.42     7.41     0.74     1.50        1    56.90
  1132             CIRCULAR             2.50     4.91     0.62     2.50        1    14.44
  1134             RECT_CLOSED          3.75     9.07     0.74     2.42        1    47.23
  1135             RECT_CLOSED          3.17     6.33     0.61     2.00        1    25.60
  1142             CIRCULAR             2.50     4.91     0.62     2.50        1    21.67
  1145             HORIZ_ELLIPSE        2.25     6.43     0.69     1.75        1    30.79
  1165             CIRCULAR             1.25     1.23     0.31     1.25        1     4.26
  1167             CIRCULAR             1.25     1.23     0.31     1.25        1     1.92
  1172             RECT_CLOSED          5.00    15.00     0.94     3.00        1   132.90
  1549             CIRCULAR             3.00     7.07     0.75     3.00        1    73.02
  1556             HORIZ_ELLIPSE        3.33    14.10     1.02     2.58        1   120.95
  8943             CIRCULAR             1.25     1.23     0.31     1.25        1     4.45
  9225             CIRCULAR             2.00     3.14     0.50     2.00        1    19.80
  9237             HORIZ_ELLIPSE        1.50     2.86     0.46     0.92        1     6.83
  9246             CIRCULAR             2.00     3.14     0.50     2.00        1    18.14
  11880            CIRCULAR             3.50     9.62     0.88     3.50        1   140.05
  11883            CIRCULAR             3.50     9.62     0.88     3.50        1    12.22
  11888            CIRCULAR             1.50     1.77     0.38     1.50        1     8.17
  11890            CIRCULAR             1.25     1.23     0.31     1.25        1    14.78
  11898            CIRCULAR             2.00     3.14     0.50     2.00        1     9.94
  12071            CIRCULAR             2.00     3.14     0.50     2.00        1    16.97
  12076            CIRCULAR             1.50     1.77     0.38     1.50        1     6.67
  12077            CIRCULAR             1.50     1.77     0.38     1.50        1     6.87
  12610            CIRCULAR             1.50     1.77     0.38     1.50        1     9.49
  12611            CIRCULAR             1.50     1.77     0.38     1.50        1     3.09
  12615            RECT_CLOSED          5.00    17.50     1.03     3.50        1    97.68
  12646            CIRCULAR             2.50     4.91     0.62     2.50        1    21.31
  13146            CIRCULAR             1.75     2.41     0.44     1.75        1     5.44
  13151            CIRCULAR             1.00     0.79     0.25     1.00        1     6.77
  13185            CIRCULAR             2.00     3.14     0.50     2.00        1    14.76
  13207            HORIZ_ELLIPSE        5.00    31.73     1.53     3.17        1   337.92
  13450            CIRCULAR             1.25     1.23     0.31     1.25        1    12.35
  13629            CIRCULAR             2.00     3.14     0.50     2.00        1     6.57
  13661            CIRCULAR             1.50     1.77     0.38     1.50        1    14.17
  13672            CIRCULAR             1.25     1.23     0.31     1.25        1     7.06
  13675            CIRCULAR             2.00     3.14     0.50     2.00        1    13.38
  13703            CIRCULAR             1.25     1.23     0.31     1.25        1     4.26
  13752            RECT_CLOSED          5.00    17.50     1.03     3.50        1   101.47
  13822            CIRCULAR             1.25     1.23     0.31     1.25        1     4.45
  13860            CIRCULAR             1.25     1.23     0.31     1.25        1     4.41
  13909            CIRCULAR             1.50     1.77     0.38     1.50        1    18.67
  13919            CIRCULAR             1.25     1.23     0.31     1.25        1     9.21
  13928            CIRCULAR             1.25     1.23     0.31     1.25        1    17.72
  13936            CIRCULAR             0.83     0.54     0.21     0.83        1     1.73
  14124            CIRCULAR             2.00     3.14     0.50     2.00        1    50.70
  14130            CIRCULAR             1.25     1.23     0.31     1.25        1    10.52
  14157            CIRCULAR             2.00     3.14     0.50     2.00        1    14.33
  14182            CIRCULAR             1.50     1.77     0.38     1.50        1     4.57
  14185            CIRCULAR             2.00     3.14     0.50     2.00        1    15.03
  14193            CIRCULAR             1.25     1.23     0.31     1.25        1     5.64
  14194            CIRCULAR             1.25     1.23     0.31     1.25        1     2.68
  14205            CIRCULAR             2.50     4.91     0.62     2.50        1    29.37
  14208            CIRCULAR             1.50     1.77     0.38     1.50        1     6.22
  14212            CIRCULAR             1.75     2.41     0.44     1.75        1    17.73
  14257            CIRCULAR             1.00     0.79     0.25     1.00        1     6.83
  14259            CIRCULAR             3.50     9.62     0.88     3.50        1   117.13
  14264            RECT_CLOSED          5.00    17.50     1.03     3.50        1    91.11
  14281            CIRCULAR             1.00     0.79     0.25     1.00        1     6.76
  14288            CIRCULAR             3.50     9.62     0.88     3.50        1    24.47
  14293            RECT_CLOSED          3.50    12.25     0.88     3.50        1    45.80
  14318            CIRCULAR             2.00     3.14     0.50     2.00        1    18.37
  14319            RECT_CLOSED          3.00    10.50     0.81     3.50        1   141.38
  14352            RECT_CLOSED          5.00    17.50     1.03     3.50        1   196.89
  14417            CIRCULAR             2.00     3.14     0.50     2.00        1     7.32
  14418            CIRCULAR             3.50     9.62     0.88     3.50        1    12.23
  14537            CIRCULAR             1.00     0.79     0.25     1.00        1     3.29
  14596            CIRCULAR             2.00     3.14     0.50     2.00        1    16.52
  14632            RECT_CLOSED          5.00    17.50     1.03     3.50        1    47.70
  14702            RECT_CLOSED          6.00    24.00     1.20     4.00        1   127.25
  14796            CIRCULAR             1.25     1.23     0.31     1.25        1     6.97
  14805            CIRCULAR             2.50     4.91     0.62     2.50        1    13.49
  14838            RECT_CLOSED          5.00    17.50     1.03     3.50        1    49.41
  14978            CIRCULAR             2.50     4.91     0.62     2.50        1    25.02
  15025            CIRCULAR             2.50     4.91     0.62     2.50        1     5.38
  15036            CIRCULAR             1.25     1.23     0.31     1.25        1    13.45
  15115            CIRCULAR             3.50     9.62     0.88     3.50        1     7.18
  15119            CIRCULAR             3.50     9.62     0.88     3.50        1    60.32
  15147            CIRCULAR             0.67     0.35     0.17     0.67        1     3.15
  15156            RECT_CLOSED          5.00    17.50     1.03     3.50        1    88.79
  15170            CIRCULAR             1.25     1.23     0.31     1.25        1    12.64
  15175            CIRCULAR             1.25     1.23     0.31     1.25        1     3.52
  15190            CIRCULAR             1.25     1.23     0.31     1.25        1    15.85
  15192            CIRCULAR             3.50     9.62     0.88     3.50        1    15.76
  15204            RECT_CLOSED          5.00    17.50     1.03     3.50        1    91.33
  15205            CIRCULAR             1.50     1.77     0.38     1.50        1     5.43
  15321            CIRCULAR             2.00     3.14     0.50     2.00        1    10.61
  15322            CIRCULAR             1.25     1.23     0.31     1.25        1     9.20
  15363            RECT_CLOSED          5.00    15.00     0.94     3.00        1   529.42
  15373            CIRCULAR             3.00     7.07     0.75     3.00        1    19.32
  15374            CIRCULAR             2.00     3.14     0.50     2.00        1    34.32
  15377            RECT_CLOSED          5.00    15.00     0.94     3.00        1    69.05
  15389            CIRCULAR             1.00     0.79     0.25     1.00        1     2.94
  15399            RECT_CLOSED          6.00    24.00     1.20     4.00        1   112.80
  15416            CIRCULAR             0.83     0.54     0.21     0.83        1     3.26
  15433            CIRCULAR             1.50     1.77     0.38     1.50        1     6.95
  15444            CIRCULAR             1.25     1.23     0.31     1.25        1     3.63
  15453            RECT_CLOSED          6.00    24.00     1.20     4.00        1   111.00
  15455            CIRCULAR             1.25     1.23     0.31     1.25        1    10.23
  15475            CIRCULAR             2.00     3.14     0.50     2.00        1    18.79
  15499            CIRCULAR             1.50     1.77     0.38     1.50        1     6.21
  15501            CIRCULAR             2.00     3.14     0.50     2.00        1    25.21
  15523            CIRCULAR             2.50     4.91     0.62     2.50        1    18.74
  15640            CIRCULAR             1.25     1.23     0.31     1.25        1    13.73
  15644            RECT_CLOSED          6.00    24.00     1.20     4.00        1   108.25
  15646            CIRCULAR             0.83     0.54     0.21     0.83        1     1.46
  15682            CIRCULAR             2.50     4.91     0.62     2.50        1    25.05
  15689            CIRCULAR             2.50     4.91     0.62     2.50        1    75.56
  15766            RECT_CLOSED          6.00    24.00     1.20     4.00        1   259.68
  15819            CIRCULAR             1.25     1.23     0.31     1.25        1    11.10
  15911            HORIZ_ELLIPSE        1.92     4.66     0.59     1.17        1    27.60
  15914            RECT_CLOSED          6.00    24.00     1.20     4.00        1   150.33
  16017            CIRCULAR             4.00    12.57     1.00     4.00        1    66.64
  16032            CIRCULAR             1.00     0.79     0.25     1.00        1     5.64
  16132            RECT_CLOSED          6.00    24.00     1.20     4.00        1   190.39
  21064            RECT_CLOSED          5.00    17.50     1.03     3.50        1    79.56
  21065            RECT_CLOSED          3.50    12.25     0.88     3.50        1    17.75
  21068            CIRCULAR             4.50    15.90     1.12     4.50        1    70.71
  21084            CIRCULAR             2.00     3.14     0.50     2.00        1    54.13
  21103            CIRCULAR             1.50     1.77     0.38     1.50        1     2.55
  21105            CIRCULAR             1.50     1.77     0.38     1.50        1    13.21
  21108            CIRCULAR             1.25     1.23     0.31     1.25        1     6.21
  21150            HORIZ_ELLIPSE        3.17    12.73     0.97     2.00        1    35.17
  21154            CIRCULAR             1.50     1.77     0.38     1.50        1     7.32
  21236            CIRCULAR             2.00     3.14     0.50     2.00        1    11.61
  21237            CIRCULAR             4.50    15.90     1.12     4.50        1   130.93
  21241            CIRCULAR             4.50    15.90     1.12     4.50        1    94.74
  21261            CIRCULAR             4.00    12.57     1.00     4.00        1    58.56
  22017            CIRCULAR             1.50     1.77     0.38     1.50        1    36.54
  22426            CIRCULAR             2.00     3.14     0.50     2.00        1     9.62
  23483            CIRCULAR             1.25     1.23     0.31     1.25        1     4.35
  23487            CIRCULAR             2.00     3.14     0.50     2.00        1    13.48
  23491            CIRCULAR             3.50     9.62     0.88     3.50        1    15.42
  23493            RECT_CLOSED          5.00    17.50     1.03     3.50        1    87.90
  23496            RECT_CLOSED          3.50    12.25     0.88     3.50        1    49.31
  23501            RECT_CLOSED          3.50    12.25     0.88     3.50        1   117.48
  23503            CIRCULAR             1.75     2.41     0.44     1.75        1    25.76
  23504            CIRCULAR             2.00     3.14     0.50     2.00        1   159.06
  23506            RECT_CLOSED          3.50    12.25     0.88     3.50        1    35.77
  23507            CIRCULAR             2.00     3.14     0.50     2.00        1     4.88
  23511            CIRCULAR             2.00     3.14     0.50     2.00        1    12.30
  23513            CIRCULAR             3.00     7.07     0.75     3.00        1    83.67
  23516            CIRCULAR             1.25     1.23     0.31     1.25        1     3.44
  23521            CIRCULAR             1.25     1.23     0.31     1.25        1     2.95
  23540            CIRCULAR             4.50    15.90     1.12     4.50        1    73.55
  23541            CIRCULAR             2.00     3.14     0.50     2.00        1    32.80
  23544            CIRCULAR             1.25     1.23     0.31     1.25        1     7.67
  23560            RECT_CLOSED          5.00    17.50     1.03     3.50        1    64.62
  23563            HORIZ_ELLIPSE        5.00    31.73     1.53     3.17        1   472.45
  23564            HORIZ_ELLIPSE        3.67    17.07     1.12     2.50        1   127.33
  23566            CIRCULAR             3.50     9.62     0.88     3.50        1    20.52
  23567            CIRCULAR             1.00     0.79     0.25     1.00        1     4.80
  23570            CIRCULAR             2.50     4.91     0.62     2.50        1    16.17
  23644            CIRCULAR             2.00     3.14     0.50     2.00        1    12.21
  23646            CIRCULAR             2.00     3.14     0.50     2.00        1    18.13
  23647            CIRCULAR             1.00     0.79     0.25     1.00        1     3.70
  23648            CIRCULAR             1.50     1.77     0.38     1.50        1     5.93
  23650            CIRCULAR             1.50     1.77     0.38     1.50        1     5.25
  23655            CIRCULAR             2.00     3.14     0.50     2.00        1    14.44
  23657            CIRCULAR             2.00     3.14     0.50     2.00        1    12.19
  23673            CIRCULAR             2.00     3.14     0.50     2.00        1     4.98
  23677            CIRCULAR             1.50     1.77     0.38     1.50        1     5.00
  23678            CIRCULAR             1.25     1.23     0.31     1.25        1     4.05
  23679            CIRCULAR             1.25     1.23     0.31     1.25        1     4.29
  23682            CIRCULAR             1.25     1.23     0.31     1.25        1     4.36
  23689            CIRCULAR             1.25     1.23     0.31     1.25        1    16.69
  23690            CIRCULAR             5.00    19.63     1.25     5.00        1   124.93
  23693            CIRCULAR             1.50     1.77     0.38     1.50        1     1.97
  23694            CIRCULAR             1.25     1.23     0.31     1.25        1     5.04
  23695            CIRCULAR             1.25     1.23     0.31     1.25        1     8.25
  23709            CIRCULAR             1.50     1.77     0.38     1.50        1     3.76
  23732            CIRCULAR             1.25     1.23     0.31     1.25        1     3.82
  23734            CIRCULAR             1.25     1.23     0.31     1.25        1     3.81
  23753            CIRCULAR             2.50     4.91     0.62     2.50        1   116.78
  23754            CIRCULAR             2.00     3.14     0.50     2.00        1    71.45
  23760            CIRCULAR             1.25     1.23     0.31     1.25        1     4.86
  23761            CIRCULAR             1.50     1.77     0.38     1.50        1    22.46
  23762            CIRCULAR             2.00     3.14     0.50     2.00        1    11.91
  23771            CIRCULAR             1.75     2.41     0.44     1.75        1    10.54
  23774            CIRCULAR             1.75     2.41     0.44     1.75        1    12.20
  23780            CIRCULAR             0.83     0.54     0.21     0.83        1     3.14
  23784            CIRCULAR             1.00     0.79     0.25     1.00        1     7.34
  23792            CIRCULAR             2.50     4.91     0.62     2.50        1    55.04
  23800            CIRCULAR             1.25     1.23     0.31     1.25        1    13.25
  23811            CIRCULAR             1.25     1.23     0.31     1.25        1     6.05
  23812            CIRCULAR             1.25     1.23     0.31     1.25        1    13.12
  23820            CIRCULAR             1.00     0.79     0.25     1.00        1     3.85
  23833            CIRCULAR             2.50     4.91     0.62     2.50        1     8.74
  C1               CIRCULAR             2.00     3.14     0.50     2.00        1   711.92
  C2               CIRCULAR             2.00     3.14     0.50     2.00        1   720.37
  C3               CIRCULAR             1.00     0.79     0.25     1.00        1    12.25
  C4               CIRCULAR             2.00     3.14     0.50     2.00        1    58.84
  C5               CIRCULAR             2.00     3.14     0.50     2.00        1   468.70
  C7               CIRCULAR             1.00     0.79     0.25     1.00        1     1.43
  C8               CIRCULAR             1.00     0.79     0.25     1.00        1     1.94
  
  
  
  *********************************************************
  NOTE: The summary statistics displayed in this report are
  based on results found at every computational time step,  
  not just on results from each reporting time step.
  *********************************************************
  
  ****************
  Analysis Options
  ****************
  Flow Units ............... CFS
  Process Models:
    Rainfall/Runoff ........ YES
    RDII ................... NO
    Snowmelt ............... NO
    Groundwater ............ NO
    Flow Routing ........... YES
    Ponding Allowed ........ NO
    Water Quality .......... NO
  Infiltration Method ...... MODIFIED_GREEN_AMPT
  Flow Routing Method ...... DYNWAVE
  Starting Date ............ 08/01/2009 00:00:00
  Ending Date .............. 08/02/2009 00:00:00
  Antecedent Dry Days ...... 0.0
  Report Time Step ......... 00:10:00
  Wet Time Step ............ 00:01:00
  Dry Time Step ............ 00:00:00
  Routing Time Step ........ 1.00 sec
  Variable Time Step ....... YES
  Maximum Trials ........... 12
  Number of Threads ........ 1
  Head Tolerance ........... 0.005000 ft
  
  
  **************************        Volume         Depth
  Runoff Quantity Continuity     acre-feet        inches
  **************************     ---------       -------
  Total Precipitation ......        83.078         3.080
  Evaporation Loss .........         0.000         0.000
  Infiltration Loss ........        41.966         1.556
  Surface Runoff ...........        40.320         1.495
  Final Storage ............         0.795         0.029
  Continuity Error (%) .....        -0.003
  
  
  **************************        Volume        Volume
  Flow Routing Continuity        acre-feet      10^6 gal
  **************************     ---------     ---------
  Dry Weather Inflow .......         0.000         0.000
  Wet Weather Inflow .......        40.319        13.138
  Groundwater Inflow .......         0.000         0.000
  RDII Inflow ..............         0.000         0.000
  External Inflow ..........         0.000         0.000
  External Outflow .........        25.546         8.325
  Flooding Loss ............        12.700         4.138
  Evaporation Loss .........         0.000         0.000
  Exfiltration Loss ........         0.000         0.000
  Initial Stored Volume ....         5.742         1.871
  Final Stored Volume ......         7.872         2.565
  Continuity Error (%) .....        -0.125
  
  
  *************************
  Highest Continuity Errors
  *************************
  Node F14601.1 (3.78%)
  Node F14501.1 (-3.33%)
  Node F13251 (-3.07%)
  Node F139015 (2.75%)
  Node St2 (2.32%)
  
  
  ***************************
  Time-Step Critical Elements
  ***************************
  Link 23564 (6.20%)
  Link C1 (1.04%)
  
  
  ********************************
  Highest Flow Instability Indexes
  ********************************
  Link 23483 (118)
  Link 13703 (90)
  Link 23511 (83)
  Link 1165 (73)
  Link 21154 (69)
  
  
  *************************
  Routing Time Step Summary
  *************************
  Minimum Time Step           :     0.18 sec
  Average Time Step           :     0.98 sec
  Maximum Time Step           :     1.00 sec
  Percent in Steady State     :    -0.00
  Average Iterations per Step :     2.68
  Percent Not Converging      :     2.29
  
  
  ***************************
  Subcatchment Runoff Summary
  ***************************
  
  --------------------------------------------------------------------------------------------------------
                            Total      Total      Total      Total      Total       Total     Peak  Runoff
                           Precip      Runon       Evap      Infil     Runoff      Runoff   Runoff   Coeff
  Subcatchment                 in         in         in         in         in    10^6 gal      CFS
  --------------------------------------------------------------------------------------------------------
  E133394#1                  3.08       0.00       0.00       1.71       1.35        0.06     2.30   0.439
  E133401#1                  3.08       0.00       0.00       0.69       2.35        0.15     3.84   0.762
  E133464#1                  3.08       0.00       0.00       0.72       2.32        0.14     3.81   0.752
  E133473#1                  3.08       0.00       0.00       0.26       2.77        0.10     3.10   0.900
  E133474#1                  3.08       0.00       0.00       0.59       2.45        0.11     3.37   0.795
  E133478#1                  3.08       0.00       0.00       0.55       2.50        0.08     2.77   0.810
  E133481#1                  3.08       0.00       0.00       1.35       1.69        0.20     4.45   0.548
  E133483#1                  3.08       0.00       0.00       0.67       2.35        0.23     4.72   0.762
  E134007#1                  3.08       0.00       0.00       1.92       1.15        0.05     1.94   0.373
  E134010#1                  3.08       0.00       0.00       1.64       1.42        0.02     0.97   0.462
  E134011#1                  3.08       0.00       0.00       1.53       1.53        0.13     3.63   0.496
  E134203#1                  3.08       0.00       0.00       0.42       2.60        0.18     4.24   0.845
  E134212#1                  3.08       0.00       0.00       0.87       2.18        0.07     2.56   0.707
  E134213#1                  3.08       0.00       0.00       0.17       2.88        0.03     1.37   0.934
  E134217#1                  3.08       0.00       0.00       0.65       2.40        0.10     3.14   0.778
  E134219#1                  3.08       0.00       0.00       0.84       2.20        0.14     3.79   0.713
  E134222#1                  3.08       0.00       0.00       2.53       0.55        0.04     1.54   0.177
  E134224.2#1                3.08       0.00       0.00       2.58       0.49        0.03     1.31   0.159
  E134250#1                  3.08       0.00       0.00       1.63       1.42        0.16     4.00   0.463
[...]
  15455                   1.00   0.01  0.00  0.00  0.99  0.00  0.00  0.00  0.99  0.00
  15475                   1.00   0.01  0.00  0.00  0.99  0.00  0.00  0.00  0.04  0.00
  15499                   1.00   0.01  0.00  0.00  0.13  0.86  0.00  0.00  0.00  0.00
  15501                   1.00   0.01  0.00  0.00  0.81  0.18  0.00  0.00  0.98  0.00
  15523                   1.00   0.01  0.00  0.00  0.58  0.42  0.00  0.00  0.00  0.00
  15640                   1.00   0.01  0.99  0.00  0.00  0.00  0.00  0.00  0.00  0.00
  15644                   1.00   0.01  0.00  0.00  0.99  0.00  0.00  0.00  0.00  0.00
  15646                   1.00   0.06  0.94  0.00  0.00  0.00  0.00  0.00  0.00  0.00
  15682                   1.00   0.01  0.00  0.00  0.73  0.26  0.00  0.00  0.00  0.00
  15689                   1.00   0.01  0.00  0.00  0.95  0.05  0.00  0.00  0.96  0.00
  15766                   1.00   0.00  0.01  0.00  0.99  0.00  0.00  0.00  0.83  0.00
  15819                   1.00   0.01  0.00  0.00  0.11  0.88  0.00  0.00  0.99  0.00
  15911                   1.00   0.01  0.00  0.00  0.99  0.00  0.00  0.00  0.22  0.00
  15914                   1.00   0.01  0.04  0.00  0.96  0.00  0.00  0.00  0.03  0.00
  16017                   1.00   0.01  0.01  0.00  0.99  0.00  0.00  0.00  0.02  0.00
  16032                   1.00   0.01  0.00  0.00  0.93  0.07  0.00  0.00  0.93  0.00
  16132                   1.00   0.00  0.00  0.00  1.00  0.00  0.00  0.00  0.02  0.00
  21064                   1.00   0.01  0.00  0.00  0.99  0.00  0.00  0.00  0.00  0.00
  21065                   1.00   0.01  0.01  0.00  0.98  0.00  0.00  0.00  0.00  0.00
  21068                   1.00   0.01  0.00  0.00  0.99  0.00  0.00  0.00  0.00  0.00
  21084                   1.00   0.01  0.03  0.00  0.96  0.00  0.00  0.00  0.73  0.00
  21103                   1.00   0.01  0.00  0.00  0.91  0.08  0.00  0.00  0.00  0.00
  21105                   1.00   0.01  0.00  0.00  0.99  0.00  0.00  0.00  0.99  0.00
  21108                   1.00   0.01  0.00  0.00  0.35  0.64  0.00  0.00  0.01  0.00
  21150                   1.00   0.01  0.00  0.00  0.99  0.00  0.00  0.00  0.01  0.00
  21154                   1.00   0.01  0.00  0.00  0.99  0.00  0.00  0.00  0.68  0.00
  21236                   1.00   0.01  0.00  0.00  0.99  0.00  0.00  0.00  0.00  0.00
  21237                   1.00   0.07  0.00  0.00  0.67  0.26  0.00  0.00  0.09  0.00
  21241                   1.00   0.01  0.06  0.00  0.94  0.00  0.00  0.00  0.00  0.00
  21261                   1.00   0.01  0.00  0.00  0.99  0.00  0.00  0.00  0.01  0.00
  22017                   1.00   0.01  0.00  0.00  0.96  0.03  0.00  0.00  0.88  0.00
  22426                   1.00   0.01  0.00  0.00  0.68  0.31  0.00  0.00  0.00  0.00
  23483                   1.00   0.01  0.00  0.00  0.99  0.00  0.00  0.00  0.43  0.00
  23487                   1.00   0.01  0.00  0.00  0.99  0.00  0.00  0.00  0.09  0.00
  23491                   1.00   0.01  0.00  0.00  0.99  0.00  0.00  0.00  0.00  0.00
  23493                   1.00   0.01  0.00  0.00  0.99  0.00  0.00  0.00  0.00  0.00
  23496                   1.00   0.01  0.00  0.00  0.99  0.00  0.00  0.00  0.00  0.00
  23501                   1.00   0.01  0.00  0.00  0.99  0.00  0.00  0.00  0.09  0.00
  23503                   1.00   0.01  0.00  0.00  0.96  0.03  0.00  0.00  0.46  0.00
  23504                   1.00   0.01  0.00  0.00  0.92  0.07  0.00  0.00  0.56  0.00
  23506                   1.00   0.01  0.00  0.00  0.99  0.00  0.00  0.00  0.00  0.00
  23507                   1.00   0.01  0.00  0.00  0.99  0.00  0.00  0.00  0.00  0.00
  23511                   1.00   0.01  0.00  0.00  0.99  0.00  0.00  0.00  0.28  0.00
  23513                   1.00   0.01  0.00  0.00  0.84  0.16  0.00  0.00  0.30  0.00
  23516                   1.00   0.01  0.00  0.00  0.99  0.00  0.00  0.00  0.46  0.00
  23521                   1.00   0.01  0.00  0.00  0.99  0.00  0.00  0.00  0.03  0.00
  23540                   1.00   0.01  0.00  0.00  0.99  0.00  0.00  0.00  0.01  0.00
  23541                   1.00   0.01  0.00  0.00  0.99  0.00  0.00  0.00  0.08  0.00
  23544                   1.00   0.01  0.00  0.00  0.90  0.09  0.00  0.00  0.90  0.00
  23560                   1.00   0.01  0.00  0.00  0.99  0.00  0.00  0.00  0.00  0.00
  23563                   1.00   0.01  0.00  0.00  0.99  0.00  0.00  0.00  0.02  0.00
  23564                   1.00   0.01  0.00  0.00  0.99  0.00  0.00  0.00  0.01  0.00
  23566                   1.00   0.01  0.00  0.00  0.99  0.00  0.00  0.00  0.00  0.00
  23567                   1.00   0.01  0.00  0.00  0.99  0.00  0.00  0.00  0.99  0.00
  23570                   1.00   0.01  0.00  0.00  0.99  0.00  0.00  0.00  0.01  0.00
  23644                   1.00   0.01  0.00  0.00  0.99  0.00  0.00  0.00  0.00  0.00
  23646                   1.00   0.01  0.00  0.00  0.99  0.00  0.00  0.00  0.98  0.00
  23647                   1.00   0.01  0.00  0.00  0.99  0.00  0.00  0.00  0.98  0.00
  23648                   1.00   0.01  0.00  0.00  0.99  0.00  0.00  0.00  0.04  0.00
  23650                   1.00   0.01  0.00  0.00  0.99  0.00  0.00  0.00  0.01  0.00
  23655                   1.00   0.01  0.00  0.00  0.99  0.00  0.00  0.00  0.28  0.00
  23657                   1.00   0.01  0.00  0.00  0.96  0.04  0.00  0.00  0.03  0.00
  23673                   1.00   0.01  0.01  0.00  0.98  0.00  0.00  0.00  0.00  0.00
  23677                   1.00   0.01  0.00  0.00  0.99  0.00  0.00  0.00  0.00  0.00
  23678                   1.00   0.01  0.00  0.00  0.99  0.00  0.00  0.00  0.35  0.00
  23679                   1.00   0.01  0.00  0.00  0.99  0.00  0.00  0.00  0.02  0.00
  23682                   1.00   0.01  0.00  0.00  0.77  0.22  0.00  0.00  0.06  0.00
  23689                   1.00   0.00  0.04  0.00  0.96  0.00  0.00  0.00  0.29  0.00
  23690                   1.00   0.00  0.00  0.00  1.00  0.00  0.00  0.00  0.00  0.00
  23693                   1.00   0.00  0.00  0.00  0.92  0.08  0.00  0.00  0.00  0.00
  23694                   1.00   0.01  0.00  0.00  0.79  0.21  0.00  0.00  0.13  0.00
  23695                   1.00   0.00  0.01  0.00  0.97  0.02  0.00  0.00  0.71  0.00
  23709                   1.00   0.01  0.00  0.00  0.99  0.00  0.00  0.00  0.00  0.00
  23732                   1.00   0.80  0.11  0.00  0.09  0.00  0.00  0.00  0.69  0.00
  23734                   1.00   0.01  0.79  0.00  0.21  0.00  0.00  0.00  0.64  0.00
  23753                   1.00   0.00  0.00  0.00  1.00  0.00  0.00  0.00  0.47  0.00
  23754                   1.00   0.00  0.01  0.00  0.99  0.00  0.00  0.00  0.60  0.00
  23760                   1.00   0.01  0.20  0.00  0.79  0.00  0.00  0.00  0.96  0.00
  23761                   1.00   0.01  0.00  0.00  0.65  0.34  0.00  0.00  0.99  0.00
  23762                   1.00   0.01  0.00  0.00  0.99  0.00  0.00  0.00  0.09  0.00
  23771                   1.00   0.01  0.99  0.00  0.00  0.00  0.00  0.00  0.00  0.00
  23774                   1.00   0.01  0.00  0.00  0.99  0.00  0.00  0.00  0.92  0.00
  23780                   1.00   0.01  0.00  0.00  0.87  0.12  0.00  0.00  0.95  0.00
  23784                   1.00   0.01  0.00  0.00  0.98  0.01  0.00  0.00  0.99  0.00
  23792                   1.00   0.01  0.00  0.00  0.91  0.09  0.00  0.00  0.95  0.00
  23800                   1.00   0.01  0.99  0.00  0.00  0.00  0.00  0.00  0.00  0.00
  23811                   1.00   0.01  0.00  0.00  0.58  0.42  0.00  0.00  0.17  0.00
  23812                   1.00   0.01  0.00  0.00  0.99  0.00  0.00  0.00  0.81  0.00
  23820                   1.00   0.01  0.00  0.00  0.34  0.65  0.00  0.00  0.65  0.00
  23833                   1.00   0.01  0.00  0.00  0.99  0.00  0.00  0.00  0.00  0.00
  C1                      1.00   0.00  0.07  0.00  0.88  0.06  0.00  0.00  0.25  0.00
  C2                      1.00   0.00  0.08  0.00  0.92  0.00  0.00  0.00  0.35  0.00
  C3                      1.00   0.00  0.00  0.00  1.00  0.00  0.00  0.00  0.00  0.00
  C4                      1.00   0.00  0.00  0.00  1.00  0.00  0.00  0.00  0.00  0.00
  C5                      1.00   0.00  0.00  0.00  1.00  0.00  0.00  0.00  0.00  0.00
  C7                      1.00   0.01  0.00  0.00  0.99  0.00  0.00  0.00  0.01  0.00
  C8                      1.00   0.01  0.00  0.00  0.99  0.00  0.00  0.00  0.02  0.00
  
  
  *************************
  Conduit Surcharge Summary
  *************************
  
  ----------------------------------------------------------------------------
                                                           Hours        Hours 
                         --------- Hours Full --------   Above Full   Capacity
  Conduit                Both Ends  Upstream  Dnstream   Normal Flow   Limited
  ----------------------------------------------------------------------------
  800                         0.01      0.01      0.01      0.25         0.01
  1056                        3.19      3.25      4.47      0.01         0.06
  1063                        0.01      0.01      1.82      0.01         0.01
  1068                        0.01      0.01      9.21      0.01         0.01
  1127                        0.01      0.01      0.03      0.12         0.01
  1132                        0.01      0.01      0.01      0.39         0.01
  1134                        0.01      0.01      0.02      0.01         0.01
  1135                        0.44      0.53      1.35      0.24         0.04
  1165                        0.18      0.18      0.32      0.19         0.16
  1167                        0.18      0.21      0.18      0.43         0.18
  1549                        0.01      0.01      4.47      0.01         0.01
  1556                        0.01      0.01      0.05      0.01         0.01
  8943                        1.47      1.47      1.80      0.05         0.06
  9225                        4.31      4.31      5.03      0.01         0.01
  9237                        1.65      1.66      1.74      0.01         0.01
  9246                        4.43      4.43      5.03      0.01         0.01
  11880                       8.56      8.56     17.17      0.01         0.01
  11883                       8.49      8.49      8.59      0.01         0.07
  11888                      14.86     14.86     15.81      0.01         0.01
  11890                       6.73      6.73     15.53      0.01         0.01
  12071                       0.10      0.10      0.66      0.01         0.01
  12076                       6.70      6.70     21.07      0.01         0.01
  12077                       3.89      3.89      6.70      0.01         0.01
  12610                       2.36      2.36      5.73      0.01         0.01
  12611                       5.43      5.43      5.73      1.78         0.01
  12646                       0.37      0.37      1.67      0.01         0.01
  13146                      21.11     21.11     21.14      0.30         0.43
  13151                       2.70      2.70     11.83      0.01         0.01
  13185                      11.59     11.59     13.20      0.01         0.01
  13450                      10.90     10.90     18.20      0.01         0.01
  13629                       2.56      2.56      2.80      0.01         0.01
  13661                       1.70      1.70      6.50      0.01         0.01
  13672                       1.83      1.83      3.46      0.01         0.01
  13675                       2.80      2.80      4.31      0.01         0.01
  13703                       2.44      2.44      3.72      0.01         0.01
  13822                       0.01      0.01      0.02      0.01         0.01
  13860                       2.39      2.39      3.46      0.01         0.01
  13909                       2.01      2.01      8.84      0.01         0.01
  13919                       0.62      0.62      7.70      0.01         0.01
  13928                       0.15      0.15      7.70      0.01         0.01
  14124                       7.39      7.39     12.79      0.01         0.01
  14130                       7.60      7.60      9.57      0.01         0.01
  14157                       9.91      9.91     12.79      0.59         0.01
  14182                      21.07     21.07     21.27      0.26         0.27
  14193                       0.02      0.02      0.24      0.01         0.01
  14194                       0.22      0.22      0.24      0.01         0.01
  14205                       0.01      0.01      5.55      0.01         0.01
  14208                      11.25     11.25     15.22      0.01         0.01
  14212                       0.37      0.37     21.14      0.01         0.01
  14257                       0.39      0.39     15.85      0.01         0.01
  14259                       8.75      8.75     17.17      0.01         0.01
  14264                       0.01      0.01      6.21      0.01         0.01
  14281                       0.01      0.01     17.93      0.01         0.01
  14288                       8.72      8.72      8.85      0.01         0.04
  14293                       8.85      8.85      9.08      0.01         0.01
  14318                       0.01      0.01      0.30      0.01         0.01
  14418                       8.71      8.72      8.75      0.01         0.13
  14596                       8.30      8.30     11.59      0.01         0.01
  14796                       0.41      0.41     11.30      0.01         0.01
  14805                       1.67      1.67      7.12      0.01         0.03
  14978                       8.68      8.68     12.82      0.01         0.01
  15025                      12.72     12.72     12.82      1.34         0.01
  15036                       9.56      9.56     18.12      0.01         0.01
  15115                       8.48      8.48      8.49      5.00         4.85
  15119                       4.46      4.46      8.48      0.01         0.01
  15147                       0.01      0.01     17.96      0.01         0.01
  15170                       9.38      9.38     15.53      0.01         0.01
  15175                       0.01      0.01      0.14      0.01         0.01
  15190                       0.08      0.08     18.00      0.01         0.01
  15192                       8.59      8.59      8.66      0.01         0.07
  15205                      15.81     15.81     17.05      0.28         0.28
  15322                       0.01      0.01      0.21      0.01         0.01
  15363                       0.01      0.01     20.70      0.01         0.01
  15373                       3.01      3.12      3.46      0.66         0.16
  15374                       0.01      0.01      4.67      0.01         0.01
  15416                       0.01      0.01     11.97      0.01         0.01
  15433                       0.01      0.01      0.73      0.01         0.01
  15444                       0.01      0.49      0.01      0.61         0.01
  15475                      12.93     12.93     14.09      0.01         0.01
  15499                       0.87     15.29      0.87     16.83         0.87
  15501                       0.01      0.01      8.30      0.01         0.01
  15689                       0.01      0.01      0.85      0.01         0.01
  16032                       0.01      0.01      1.22      0.01         0.01
  21064                       6.21      6.21      6.84      0.01         0.01
  21065                      11.34     11.34     11.45      2.33         2.33
  21068                       8.62      8.62      9.03      0.01         0.01
  21084                       0.01      0.01     17.60      0.01         0.01
  21103                       0.01      0.01      0.01      0.27         0.01
  21261                       0.01      0.01      1.26      0.01         0.01
  22017                       0.01      0.01      9.85      0.01         0.01
  22426                       7.66      7.95      8.56      2.95         2.55
  23483                       2.26      2.26      3.46      0.01         0.01
  23487                       4.43      4.43      7.95      1.81         1.78
  23491                       8.66      8.66      8.85      0.01         0.06
  23496                       9.08      9.08      9.27      0.01         0.02
  23501                       9.27      9.27     10.75      0.01         0.01
  23503                       6.69      6.69     15.49      0.01         0.01
  23504                       0.01      0.01     14.83      0.01         0.01
  23506                      10.75     10.75     11.34      0.01         0.01
  23507                       0.01      0.01      0.01      0.55         0.01
  23513                       3.74      3.74      7.63      0.01         0.01
  23516                       0.44      0.44      0.83      0.01         0.01
  23521                       0.01      0.01      0.83      0.42         0.01
  23540                       9.03      9.03     10.01      0.01         0.01
  23541                      14.09     14.09     17.60      0.01         0.01
  23544                       0.01      0.01      7.73      0.01         0.01
  23564                       0.01      0.01      2.20      0.01         0.01
  23566                       8.49      8.49      8.56      0.01         0.06
  23567                       0.01      0.01     15.66      0.01         0.01
  23570                       7.12      7.12      8.68      0.08         0.08
  23646                       0.01      0.01      1.04      0.01         0.01
  23647                       0.01      0.01      0.24      0.01         0.01
  23648                       0.11      0.11      0.19      0.01         0.01
  23650                       0.19      0.19      0.81      0.01         0.01
  23655                       0.18      0.18      2.80      0.01         0.01
  23657                       2.80      2.80      5.13      0.01         0.01
  23673                       0.96      0.96      1.04      0.01         0.01
  23678                       8.48      8.48      9.64      0.01         0.01
  23679                       9.26      9.26      9.64      0.01         0.01
  23682                       9.26      9.26     10.30      0.01         0.01
  23689                      10.77     10.77     24.00      0.01         0.01
  23690                      20.70     20.70     21.37      0.01         0.09
  23693                       3.13      3.13      3.17      0.01         0.02
  23694                       0.01      0.01      1.70      0.01         0.01
  23695                       1.70      1.70      3.92      0.01         0.01
  23753                       2.93      2.93     21.37      0.01         0.01
  23754                       1.76      1.76     23.99      0.01         0.01
  23761                       0.01      0.01      2.70      0.01         0.01
  23762                       1.22      1.22      2.86      0.01         0.01
  23774                       0.01      0.01      2.02      0.01         0.01
  23780                       0.01      0.01     16.50      0.01         0.01
  23784                       0.01      0.01     15.66      0.01         0.01
  23811                       0.01      0.01      0.40      0.01         0.01
  23812                       0.40      0.40     21.45      0.01         0.01
  C1                          8.28      8.28     22.40      0.01         0.01
  C2                          7.77      7.77     23.78      0.01         0.01
  C3                         24.00     24.00     24.00      0.01         0.01
  C4                         24.00     24.00     24.00      0.07         0.12
  C5                         24.00     24.00     24.00      0.01         0.01
  C7                          3.06      3.06     20.31      0.01         0.01
  C8                          0.01      0.01      3.06      0.01         0.01
  

  Analysis begun on:  Tue Jul 10 15:41:57 2018
  Analysis ended on:  Tue Jul 10 15:42:53 2018
  Total elapsed time: 00:00:56