
  EPA STORM WATER MANAGEMENT MODEL - VERSION 5.1 (Build 5.1.012)
  --------------------------------------------------------------

  WARNING 04: minimum elevation drop used for Conduit 11883
  WARNING 04: minimum elevation drop used for Conduit 15746
  WARNING 04: minimum elevation drop used for Conduit 16148
  WARNING 04: minimum elevation drop used for Conduit 16155
  WARNING 04: minimum elevation drop used for Conduit 16374
  WARNING 04: minimum elevation drop used for Conduit 23627
  
  *************
  Element Count
  *************
  Number of rain gages ...... 1
  Number of subcatchments ... 292
  Number of nodes ........... 407
  Number of links ........... 405
  Number of pollutants ...... 0
  Number of land uses ....... 0
  
  
  ****************
  Raingage Summary
  ****************
                                                      Data       Recording
  Name                 Data Source                    Type       Interval 
  ------------------------------------------------------------------------
  SCS~Type~II,~10-yr   RN#3                           CUMULATIVE   6 min.
  
  
  ********************
  Subcatchment Summary
  ********************
  Name                       Area     Width   %Imperv    %Slope Rain Gage            Outlet              
  -----------------------------------------------------------------------------------------------------------
  E133474#1                  1.71      1.00     79.00  100.0000 SCS~Type~II,~10-yr   E133474             
  F133469#1                  3.76      1.00     78.00  100.0000 SCS~Type~II,~10-yr   F133469             
  F133463#1                  3.35      1.00     80.00  100.0000 SCS~Type~II,~10-yr   F133463             
  F133462#1                  2.34      1.00     92.00  100.0000 SCS~Type~II,~10-yr   F133462             
  E133473#1                  1.30      1.00     90.00  100.0000 SCS~Type~II,~10-yr   E133473             
  E133464#1                  2.29      1.00     75.00  100.0000 SCS~Type~II,~10-yr   E133464             
  E133478#1                  1.19      1.00     80.00  100.0000 SCS~Type~II,~10-yr   E133478             
  F133464#1                  5.17      1.00     80.00  100.0000 SCS~Type~II,~10-yr   F133464             
  F133459#1                  2.76      1.00     84.00  100.0000 SCS~Type~II,~10-yr   F133459             
  F133452#1                  7.83      1.00     73.00  100.0000 SCS~Type~II,~10-yr   F133452             
  F133448#1                  0.58      1.00     79.00  100.0000 SCS~Type~II,~10-yr   F133448             
  F133451#1                  1.84      1.00     67.00  100.0000 SCS~Type~II,~10-yr   F133451             
  E133481#1                  4.44      1.00     55.00  100.0000 SCS~Type~II,~10-yr   E133481             
  E134267#1                  1.30      1.00     24.00  100.0000 SCS~Type~II,~10-yr   E134267             
  E134266#1                  0.80      1.00      9.00  100.0000 SCS~Type~II,~10-yr   E134266             
  F134230#1                  4.03      1.00     83.00  100.0000 SCS~Type~II,~10-yr   F134230             
  E134222#1                  2.43      1.00     16.00  100.0000 SCS~Type~II,~10-yr   E134222             
  E134219#1                  2.39      1.00     71.00  100.0000 SCS~Type~II,~10-yr   E134219             
  F134231#1                  3.65      1.00     83.00  100.0000 SCS~Type~II,~10-yr   F134231             
  E134203#1                  2.58      1.00     85.00  100.0000 SCS~Type~II,~10-yr   E134203             
  F134200#1                  0.73      1.00     92.00  100.0000 SCS~Type~II,~10-yr   F134200             
  E134007#1                  1.55      1.00     35.00  100.0000 SCS~Type~II,~10-yr   E134007             
  E134262#1                  0.22      1.00     20.00  100.0000 SCS~Type~II,~10-yr   E134262             
  E134263#1                  3.04      1.00     17.00  100.0000 SCS~Type~II,~10-yr   E134263             
  F134104#1                  2.61      1.00     70.00  100.0000 SCS~Type~II,~10-yr   F134104             
  F134118#1                  7.38      1.00     29.00  100.0000 SCS~Type~II,~10-yr   F134118             
  F134101#1                  0.98      1.00     84.00  100.0000 SCS~Type~II,~10-yr   F134101             
  F134126#1                  5.00      1.00     53.00  100.0000 SCS~Type~II,~10-yr   F134126             
  E134011#1                  3.17      1.00     49.00  100.0000 SCS~Type~II,~10-yr   E134011             
  F135999#1                  4.18      1.00      8.00  100.0000 SCS~Type~II,~10-yr   F135999             
  E134010#1                  0.52      1.00     41.00  100.0000 SCS~Type~II,~10-yr   E134010             
  E1376#1                    6.48      1.00     72.00  100.0000 SCS~Type~II,~10-yr   E1376               
  E134257#1                  2.50      1.00     42.00  100.0000 SCS~Type~II,~10-yr   E134257             
  E133401#1                  2.31      1.00     76.00  100.0000 SCS~Type~II,~10-yr   E133401             
  E134255#1                  2.71      1.00     44.00  100.0000 SCS~Type~II,~10-yr   E134255             
  F134147#1                  0.89      1.00     35.00  100.0000 SCS~Type~II,~10-yr   F134147             
  E1371#1                   11.19      1.00     44.00  100.0000 SCS~Type~II,~10-yr   E1371               
  E1369#1                    1.70      1.00     34.00  100.0000 SCS~Type~II,~10-yr   E1369               
  E134288#1                  1.31      1.00     49.00  100.0000 SCS~Type~II,~10-yr   E134288             
  E13152#1                   1.27      1.00     39.00  100.0000 SCS~Type~II,~10-yr   E13152              
  E133394#1                  1.66      1.00     42.00  100.0000 SCS~Type~II,~10-yr   E133394             
  E1366#1                    1.61      1.00     33.00  100.0000 SCS~Type~II,~10-yr   E1366               
  E134250#1                  4.14      1.00     46.00  100.0000 SCS~Type~II,~10-yr   E134250             
  E1364#1                    0.58      1.00     41.00  100.0000 SCS~Type~II,~10-yr   E1364               
  E13155#1                   1.90      1.00     40.00  100.0000 SCS~Type~II,~10-yr   E13155              
  E134278#1                  1.97      1.00     53.00  100.0000 SCS~Type~II,~10-yr   E134278             
  E143393#1                 10.89      1.00     18.00  100.0000 SCS~Type~II,~10-yr   E143393             
  E144272#1                  4.22      1.00     81.00  100.0000 SCS~Type~II,~10-yr   E144272             
  F143560#1                  5.72      1.00      7.00  100.0000 SCS~Type~II,~10-yr   F143560             
  E14183#1                   0.91      1.00     44.00  100.0000 SCS~Type~II,~10-yr   E14183              
  E143373#1                  0.54      1.00     90.00  100.0000 SCS~Type~II,~10-yr   E143373             
  E1456#1                    1.48      1.00     45.00  100.0000 SCS~Type~II,~10-yr   E1456               
  E143304#1                  0.69      1.00     44.00  100.0000 SCS~Type~II,~10-yr   E143304             
  E1458#1                    1.44      1.00     45.00  100.0000 SCS~Type~II,~10-yr   E1458               
  E1459#1                    3.14      1.00     40.00  100.0000 SCS~Type~II,~10-yr   E1459               
  E14181#1                   1.55      1.00     30.00  100.0000 SCS~Type~II,~10-yr   E14181              
  E14182#1                   0.29      1.00     48.00  100.0000 SCS~Type~II,~10-yr   E14182              
  E143369#1                  2.06      1.00     43.00  100.0000 SCS~Type~II,~10-yr   E143369             
  E1455#1                    1.29      1.00     25.00  100.0000 SCS~Type~II,~10-yr   E1455               
  E14179#1                   1.14      1.00     47.00  100.0000 SCS~Type~II,~10-yr   E14179              
  F143587#1                  1.18      1.00     10.00  100.0000 SCS~Type~II,~10-yr   F143587             
  F143590#1                  1.23      1.00     13.00  100.0000 SCS~Type~II,~10-yr   F143590             
  F143575#1                  0.82      1.00      4.00  100.0000 SCS~Type~II,~10-yr   F143575             
  E143321#1                  2.01      1.00     53.00  100.0000 SCS~Type~II,~10-yr   E143321             
  F143545#1                  2.64      1.00      5.00  100.0000 SCS~Type~II,~10-yr   F143545             
  E143366#1                  0.69      1.00     14.00  100.0000 SCS~Type~II,~10-yr   E143366             
  E143356#1                  1.43      1.00     86.00  100.0000 SCS~Type~II,~10-yr   E143356             
  F143622#1                  1.14      1.00     10.00  100.0000 SCS~Type~II,~10-yr   F143622             
  E143300#1                  2.65      1.00     42.00  100.0000 SCS~Type~II,~10-yr   E143300             
  E143352#1                  0.64      1.00     92.00  100.0000 SCS~Type~II,~10-yr   E143352             
  E1442#1                    0.96      1.00      9.00  100.0000 SCS~Type~II,~10-yr   E1442               
  E143358#1                  1.32      1.00     79.00  100.0000 SCS~Type~II,~10-yr   E143358             
  E1446#1                    4.90      1.00     47.00  100.0000 SCS~Type~II,~10-yr   E1446               
  E14176#1                   0.37      1.00     39.00  100.0000 SCS~Type~II,~10-yr   E14176              
  F143548#1                  0.57      1.00     22.00  100.0000 SCS~Type~II,~10-yr   F143548             
  F143617#1                  2.35      1.00     14.00  100.0000 SCS~Type~II,~10-yr   F143617             
  F143539#1                  0.34      1.00     14.00  100.0000 SCS~Type~II,~10-yr   F143539             
  E143361#1                  1.50      1.00     50.00  100.0000 SCS~Type~II,~10-yr   E143361             
  E1444#1                    1.32      1.00     32.00  100.0000 SCS~Type~II,~10-yr   E1444               
  F143543#1                  1.26      1.00     16.00  100.0000 SCS~Type~II,~10-yr   F143543             
  E144050#1                  0.63      1.00     63.00  100.0000 SCS~Type~II,~10-yr   E144050             
  E14124#1                   1.64      1.00     52.00  100.0000 SCS~Type~II,~10-yr   E14124              
  F143537#1                  0.37      1.00     21.00  100.0000 SCS~Type~II,~10-yr   F143537             
  E1435#1                    1.14      1.00     40.00  100.0000 SCS~Type~II,~10-yr   E1435               
  F143529#1                  3.17      1.00     10.00  100.0000 SCS~Type~II,~10-yr   F143529             
  F143520#1                  0.83      1.00     17.00  100.0000 SCS~Type~II,~10-yr   F143520             
  F143603#1                  0.81      1.00      8.00  100.0000 SCS~Type~II,~10-yr   F143603             
  E143319#1                  1.45      1.00     57.00  100.0000 SCS~Type~II,~10-yr   E143319             
  E14128#1                   0.87      1.00     53.00  100.0000 SCS~Type~II,~10-yr   E14128              
  F143513#1                  7.53      1.00     15.00  100.0000 SCS~Type~II,~10-yr   F143513             
  F143510#1                  2.99      1.00     67.00  100.0000 SCS~Type~II,~10-yr   F143510             
  E143289#1                  1.17      1.00     44.00  100.0000 SCS~Type~II,~10-yr   E143289             
  E143288#1                  2.35      1.00     38.00  100.0000 SCS~Type~II,~10-yr   E143288             
  E1450#1                    5.39      1.00     50.00  100.0000 SCS~Type~II,~10-yr   E1450               
  F146005#1                  1.27      1.00     15.00  100.0000 SCS~Type~II,~10-yr   F146005             
  F143637#1                  0.41      1.00     20.00  100.0000 SCS~Type~II,~10-yr   F143637             
  E143329#1                  2.35      1.00     84.00  100.0000 SCS~Type~II,~10-yr   E143329             
  F147005#1                  4.57      1.00     52.00  100.0000 SCS~Type~II,~10-yr   F147005             
  F143643#1                  1.79      1.00     14.00  100.0000 SCS~Type~II,~10-yr   F143643             
  E1448#1                    1.54      1.00     24.00  100.0000 SCS~Type~II,~10-yr   E1448               
  E143340#1                  0.27      1.00     84.00  100.0000 SCS~Type~II,~10-yr   E143340             
  E143339#1                  2.27      1.00     71.00  100.0000 SCS~Type~II,~10-yr   E143339             
  E143315#1                  3.35      1.00     43.00  100.0000 SCS~Type~II,~10-yr   E143315             
  E143287#1                  0.28      1.00     50.00  100.0000 SCS~Type~II,~10-yr   E143287             
  F146006#1                  0.76      1.00      7.00  100.0000 SCS~Type~II,~10-yr   F146006             
  E143335#1                  0.90      1.00     82.00  100.0000 SCS~Type~II,~10-yr   E143335             
  E14116#1                   1.23      1.00     45.00  100.0000 SCS~Type~II,~10-yr   E14116              
  F143648#1                  2.35      1.00     41.00  100.0000 SCS~Type~II,~10-yr   F143648             
  E143327#1                  1.74      1.00     77.00  100.0000 SCS~Type~II,~10-yr   E143327             
  F143649#1                  0.35      1.00     61.00  100.0000 SCS~Type~II,~10-yr   F143649             
  E144011#1                  0.34      1.00     85.00  100.0000 SCS~Type~II,~10-yr   E144011             
  E14123#1                   1.58      1.00     60.00  100.0000 SCS~Type~II,~10-yr   E14123              
  E14120#1                   1.75      1.00     45.00  100.0000 SCS~Type~II,~10-yr   E14120              
  E143284#1                  1.08      1.00     43.00  100.0000 SCS~Type~II,~10-yr   E143284             
  E144004#1                  0.86      1.00     78.00  100.0000 SCS~Type~II,~10-yr   E144004             
  E143314#1                  2.33      1.00     48.00  100.0000 SCS~Type~II,~10-yr   E143314             
  E143988#1                  0.39      1.00     68.00  100.0000 SCS~Type~II,~10-yr   E143988             
  F143651#1                  0.27      1.00     72.00  100.0000 SCS~Type~II,~10-yr   F143651             
  E144014#1                  0.40      1.00     76.00  100.0000 SCS~Type~II,~10-yr   E144014             
  E1428#1                    2.50      1.00     55.00  100.0000 SCS~Type~II,~10-yr   E1428               
  E1425#1                    2.61      1.00     56.00  100.0000 SCS~Type~II,~10-yr   E1425               
  E143282#1                  0.35      1.00     57.00  100.0000 SCS~Type~II,~10-yr   E143282             
  E144018#1                  5.50      1.00     66.00  100.0000 SCS~Type~II,~10-yr   E144018             
  E143992#1                  0.59      1.00     69.00  100.0000 SCS~Type~II,~10-yr   E143992             
  E143993#1                  2.83      1.00     72.00  100.0000 SCS~Type~II,~10-yr   E143993             
  E14112#1                   1.42      1.00     55.00  100.0000 SCS~Type~II,~10-yr   E14112              
  E14108#1                   0.26      1.00     62.00  100.0000 SCS~Type~II,~10-yr   E14108              
  E143999#1                  2.05      1.00     72.00  100.0000 SCS~Type~II,~10-yr   E143999             
  E143994#1                  2.65      1.00     81.00  100.0000 SCS~Type~II,~10-yr   E143994             
  E14106#1                   0.57      1.00     54.00  100.0000 SCS~Type~II,~10-yr   E14106              
  E14109#1                   1.70      1.00     52.00  100.0000 SCS~Type~II,~10-yr   E14109              
  E143280#1                  2.74      1.00     73.00  100.0000 SCS~Type~II,~10-yr   E143280             
  E14105#1                   0.28      1.00     41.00  100.0000 SCS~Type~II,~10-yr   E14105              
  E143977#1                  1.81      1.00     58.00  100.0000 SCS~Type~II,~10-yr   E143977             
  E143278#1                  1.18      1.00     54.00  100.0000 SCS~Type~II,~10-yr   E143278             
  E143277#1                  0.33      1.00     40.00  100.0000 SCS~Type~II,~10-yr   E143277             
  E144026#1                  4.88      1.00     49.00  100.0000 SCS~Type~II,~10-yr   E144026             
  E143972#1                  0.37      1.00     10.00  100.0000 SCS~Type~II,~10-yr   E143972             
  E143973#1                  0.71      1.00     35.00  100.0000 SCS~Type~II,~10-yr   E143973             
  F143928#1                  3.13      1.00     47.00  100.0000 SCS~Type~II,~10-yr   F143928             
  F143930#1                  1.95      1.00     40.00  100.0000 SCS~Type~II,~10-yr   F143930             
  E1422#1                    2.02      1.00     40.00  100.0000 SCS~Type~II,~10-yr   E1422               
  E143964#1                  0.16      1.00     33.00  100.0000 SCS~Type~II,~10-yr   E143964             
  E144027#1                  1.10      1.00     31.00  100.0000 SCS~Type~II,~10-yr   E144027             
  E143270#1                  0.37      1.00     59.00  100.0000 SCS~Type~II,~10-yr   E143270             
  F143909#1                  0.77      1.00     33.00  100.0000 SCS~Type~II,~10-yr   F143909             
  E145052#1                  0.79      1.00     76.00  100.0000 SCS~Type~II,~10-yr   E145052             
  E143268#1                  1.97      1.00     23.00  100.0000 SCS~Type~II,~10-yr   E143268             
  F143906#1                  0.31      1.00     41.00  100.0000 SCS~Type~II,~10-yr   F143906             
  E143713#1                  1.70      1.00     45.00  100.0000 SCS~Type~II,~10-yr   E143713             
  F143921#1                  1.44      1.00     43.00  100.0000 SCS~Type~II,~10-yr   F143921             
  F143911#1                  1.11      1.00     45.00  100.0000 SCS~Type~II,~10-yr   F143911             
  E143717#1                  0.51      1.00     73.00  100.0000 SCS~Type~II,~10-yr   E143717             
  F143905#1                  1.47      1.00     33.00  100.0000 SCS~Type~II,~10-yr   F143905             
  F143922#1                  6.31      1.00     41.00  100.0000 SCS~Type~II,~10-yr   F143922             
  E1416#1                    1.53      1.00     33.00  100.0000 SCS~Type~II,~10-yr   E1416               
  F143902#1                  1.40      1.00     47.00  100.0000 SCS~Type~II,~10-yr   F143902             
  E143723#1                  4.96      1.00     80.00  100.0000 SCS~Type~II,~10-yr   E143723             
  E147008#1                  1.51      1.00     67.00  100.0000 SCS~Type~II,~10-yr   E147008             
  E143736#1                  1.26      1.00     85.00  100.0000 SCS~Type~II,~10-yr   E143736             
  E143746#1                  4.22      1.00     75.00  100.0000 SCS~Type~II,~10-yr   E143746             
  E145300#1                  5.23      1.00     69.00  100.0000 SCS~Type~II,~10-yr   E145300             
  E143801#1                  2.62      1.00     83.00  100.0000 SCS~Type~II,~10-yr   E143801             
  E143885#1                  0.31      1.00     60.00  100.0000 SCS~Type~II,~10-yr   E143885             
  E143884#1                  1.66      1.00     36.00  100.0000 SCS~Type~II,~10-yr   E143884             
  E149#1                     1.31      1.00     48.00  100.0000 SCS~Type~II,~10-yr   E149                
  E143811#1                  1.13      1.00     87.00  100.0000 SCS~Type~II,~10-yr   E143811             
  F143913#1                  0.67      1.00     20.00  100.0000 SCS~Type~II,~10-yr   F143913             
  E143794#1                  1.97      1.00     79.00  100.0000 SCS~Type~II,~10-yr   E143794             
  E142#1                     1.27      1.00     52.00  100.0000 SCS~Type~II,~10-yr   E142                
  E143703#1                  1.33      1.00     55.00  100.0000 SCS~Type~II,~10-yr   E143703             
  E145066#1                  1.50      1.00     75.00  100.0000 SCS~Type~II,~10-yr   E145066             
  F143899#1                  1.56      1.00     54.00  100.0000 SCS~Type~II,~10-yr   F143899             
  E143741#1                  1.17      1.00     77.00  100.0000 SCS~Type~II,~10-yr   E143741             
  E143883#1                  3.68      1.00     45.00  100.0000 SCS~Type~II,~10-yr   E143883             
  E145076#1                  0.30      1.00     83.00  100.0000 SCS~Type~II,~10-yr   E145076             
  F143914#1                  3.78      1.00     30.00  100.0000 SCS~Type~II,~10-yr   F143914             
  E145077#1                  0.96      1.00     76.00  100.0000 SCS~Type~II,~10-yr   E145077             
  F143892#1                  0.98      1.00     51.00  100.0000 SCS~Type~II,~10-yr   F143892             
  E143840#1                  5.33      1.00     68.00  100.0000 SCS~Type~II,~10-yr   E143840             
  E145201#1                  0.13      1.00     40.00  100.0000 SCS~Type~II,~10-yr   E145201             
  E145206#1                  0.51      1.00     33.00  100.0000 SCS~Type~II,~10-yr   E145206             
  E145202#1                  0.54      1.00     52.00  100.0000 SCS~Type~II,~10-yr   E145202             
  E143750#1                  1.16      1.00     80.00  100.0000 SCS~Type~II,~10-yr   E143750             
  E143849#1                  0.88      1.00     78.00  100.0000 SCS~Type~II,~10-yr   E143849             
  F143941#1                  3.05      1.00     56.00  100.0000 SCS~Type~II,~10-yr   F143941             
  E143823#1                  0.94      1.00     83.00  100.0000 SCS~Type~II,~10-yr   E143823             
  E143888#1                  3.52      1.00     37.00  100.0000 SCS~Type~II,~10-yr   E143888             
  F143943#1                  2.70      1.00     36.00  100.0000 SCS~Type~II,~10-yr   F143943             
  E143860#1                  0.89      1.00     77.00  100.0000 SCS~Type~II,~10-yr   E143860             
  F143947#1                  0.70      1.00     35.00  100.0000 SCS~Type~II,~10-yr   F143947             
  E143757#1                  0.22      1.00     87.00  100.0000 SCS~Type~II,~10-yr   E143757             
  E143759#1                  0.23      1.00     92.00  100.0000 SCS~Type~II,~10-yr   E143759             
  E143853#1                  0.42      1.00     70.00  100.0000 SCS~Type~II,~10-yr   E143853             
  E143798#1                  1.62      1.00     87.00  100.0000 SCS~Type~II,~10-yr   E143798             
  E143829#1                  1.15      1.00     91.00  100.0000 SCS~Type~II,~10-yr   E143829             
  E143760#1                  1.04      1.00     91.00  100.0000 SCS~Type~II,~10-yr   E143760             
  F143952#1                  1.01      1.00     58.00  100.0000 SCS~Type~II,~10-yr   F143952             
  E143857#1                  0.60      1.00     78.00  100.0000 SCS~Type~II,~10-yr   E143857             
  F143953#1                  1.45      1.00     60.00  100.0000 SCS~Type~II,~10-yr   F143953             
  F143958#1                  0.86      1.00     57.00  100.0000 SCS~Type~II,~10-yr   F143958             
  E143872#1                  2.96      1.00     86.00  100.0000 SCS~Type~II,~10-yr   E143872             
  F143949#1                  1.31      1.00     78.00  100.0000 SCS~Type~II,~10-yr   F143949             
  E153868#1                  2.60      1.00     81.00  100.0000 SCS~Type~II,~10-yr   E153868             
  F153955#1                  1.64      1.00     77.00  100.0000 SCS~Type~II,~10-yr   F153955             
  F153956#1                  3.68      1.00     74.00  100.0000 SCS~Type~II,~10-yr   F153956             
  E153770#1                  1.51      1.00     79.00  100.0000 SCS~Type~II,~10-yr   E153770             
  F153959#1                  0.83      1.00     86.00  100.0000 SCS~Type~II,~10-yr   F153959             
  E153875#1                  0.31      1.00     81.00  100.0000 SCS~Type~II,~10-yr   E153875             
  E153874#1                  0.42      1.00     80.00  100.0000 SCS~Type~II,~10-yr   E153874             
  F153938#1                  2.10      1.00     77.00  100.0000 SCS~Type~II,~10-yr   F153938             
  E146003#1                  1.35      1.00     58.00  100.0000 SCS~Type~II,~10-yr   E146003             
  E146002#1                  0.29      1.00     68.00  100.0000 SCS~Type~II,~10-yr   E146002             
  E144034#1                  0.13      1.00     87.00  100.0000 SCS~Type~II,~10-yr   E144034             
  E145010#1                  0.17      1.00     65.00  100.0000 SCS~Type~II,~10-yr   E145010             
  E145011#1                  0.20      1.00     69.00  100.0000 SCS~Type~II,~10-yr   E145011             
  F147143#1                  0.78      1.00     62.00  100.0000 SCS~Type~II,~10-yr   F147143             
  F147147#1                  0.22      1.00     52.00  100.0000 SCS~Type~II,~10-yr   F147147             
  F147148#1                  0.05      1.00     49.00  100.0000 SCS~Type~II,~10-yr   F147148             
  F147148.1#1                0.79      1.00     66.00  100.0000 SCS~Type~II,~10-yr   F147148.1           
  F13290#1                   0.14      1.00     68.00  100.0000 SCS~Type~II,~10-yr   F13290              
  F13292#1                   1.00      1.00     90.00  100.0000 SCS~Type~II,~10-yr   F13292              
  F13295#1                   0.37      1.00     88.00  100.0000 SCS~Type~II,~10-yr   F13295              
  F13259#1                   0.45      1.00     72.00  100.0000 SCS~Type~II,~10-yr   F13259              
  F13260#1                   1.61      1.00     66.00  100.0000 SCS~Type~II,~10-yr   F13260              
  F133438#1                  6.96      1.00     71.00  100.0000 SCS~Type~II,~10-yr   F133438             
  F13250#1                   0.26      1.00     69.00  100.0000 SCS~Type~II,~10-yr   F13250              
  F13251#1                   0.58      1.00     65.00  100.0000 SCS~Type~II,~10-yr   F13251              
  F13252#1                   1.23      1.00     49.00  100.0000 SCS~Type~II,~10-yr   F13252              
  F13255#1                   5.52      1.00     43.00  100.0000 SCS~Type~II,~10-yr   F13255              
  F13264#1                   1.43      1.00     46.00  100.0000 SCS~Type~II,~10-yr   F13264              
  F13269#1                   1.80      1.00     48.00  100.0000 SCS~Type~II,~10-yr   F13269              
  F13277#1                   0.53      1.00     66.00  100.0000 SCS~Type~II,~10-yr   F13277              
  F13281#1                   2.81      1.00     67.00  100.0000 SCS~Type~II,~10-yr   F13281              
  F13289#1                   2.63      1.00     89.00  100.0000 SCS~Type~II,~10-yr   F13289              
  F143661#1                  3.37      1.00     50.00  100.0000 SCS~Type~II,~10-yr   F143661             
  F143662#1                  1.68      1.00     54.00  100.0000 SCS~Type~II,~10-yr   F143662             
  F143665#1                  3.30      1.00     33.00  100.0000 SCS~Type~II,~10-yr   F143665             
  F143671#1                  0.92      1.00     17.00  100.0000 SCS~Type~II,~10-yr   F143671             
  F143674#1                  4.54      1.00     17.00  100.0000 SCS~Type~II,~10-yr   F143674             
  F143676#1                  1.10      1.00     26.00  100.0000 SCS~Type~II,~10-yr   F143676             
  F143682.01#1               5.77      1.00     21.00  100.0000 SCS~Type~II,~10-yr   F143682.01          
  F143692#1                  2.08      1.00     64.00  100.0000 SCS~Type~II,~10-yr   F143692             
  F143693#1                  4.76      1.00     56.00  100.0000 SCS~Type~II,~10-yr   F143693             
  F143701#1                  0.39      1.00     65.00  100.0000 SCS~Type~II,~10-yr   F143701             
  F143702#1                  1.06      1.00     51.00  100.0000 SCS~Type~II,~10-yr   F143702             
  F143705#1                  0.34      1.00     55.00  100.0000 SCS~Type~II,~10-yr   F143705             
  F143707#1                  0.59      1.00     59.00  100.0000 SCS~Type~II,~10-yr   F143707             
  F143708#1                  2.68      1.00     34.00  100.0000 SCS~Type~II,~10-yr   F143708             
  F144001#1                  4.54      1.00     52.00  100.0000 SCS~Type~II,~10-yr   F144001             
  F145017#1                  2.17      1.00     70.00  100.0000 SCS~Type~II,~10-yr   F145017             
  F147020#1                  2.04      1.00     65.00  100.0000 SCS~Type~II,~10-yr   F147020             
  F149001.2#1                3.51      1.00     36.00  100.0000 SCS~Type~II,~10-yr   F149001.2           
  F143648.1#1                1.74      1.00     39.00  100.0000 SCS~Type~II,~10-yr   F143648.1           
  E133483#1                  3.68      1.00     77.00  100.0000 SCS~Type~II,~10-yr   E133483             
  E14124.01#1                1.23      1.00     50.00  100.0000 SCS~Type~II,~10-yr   E14124.01           
  E145205#1                  0.63      1.00     56.00  100.0000 SCS~Type~II,~10-yr   E145205             
  E147004.01#1               2.03      1.00     87.00  100.0000 SCS~Type~II,~10-yr   E147004.01          
  E143884.01#1               0.09      1.00     46.00  100.0000 SCS~Type~II,~10-yr   E143884.01          
  F143512#1                  1.54      1.00     46.00  100.0000 SCS~Type~II,~10-yr   F143512             
  F143636#1                  5.95      1.00     10.00  100.0000 SCS~Type~II,~10-yr   F143636             
  F139025#1                  0.37      1.00     53.00  100.0000 SCS~Type~II,~10-yr   F139025             
  F139026#1                  0.63      1.00     73.00  100.0000 SCS~Type~II,~10-yr   F139026             
  F139028#1                  0.42      1.00     84.00  100.0000 SCS~Type~II,~10-yr   F139028             
  F139029#1                  0.82      1.00     65.00  100.0000 SCS~Type~II,~10-yr   F139029             
  F139031#1                  1.49      1.00     76.00  100.0000 SCS~Type~II,~10-yr   F139031             
  E134217#1                  1.54      1.00     77.00  100.0000 SCS~Type~II,~10-yr   E134217             
  E134213#1                  0.40      1.00     93.00  100.0000 SCS~Type~II,~10-yr   E134213             
  F13291#1                   1.07      1.00     75.00  100.0000 SCS~Type~II,~10-yr   F13291              
  F149012#1                  0.81      1.00     29.00  100.0000 SCS~Type~II,~10-yr   F149012             
  F149011#1                  1.08      1.00     69.00  100.0000 SCS~Type~II,~10-yr   F149011             
  F149025#1                  0.06      1.00     39.00  100.0000 SCS~Type~II,~10-yr   F149025             
  F149015#1                  0.58      1.00     39.00  100.0000 SCS~Type~II,~10-yr   F149015             
  F14504#1                   0.69      1.00     21.00  100.0000 SCS~Type~II,~10-yr   F14504              
  F14502#1                   0.45      1.00     38.00  100.0000 SCS~Type~II,~10-yr   F14502              
  F14503#1                   0.52      1.00     27.00  100.0000 SCS~Type~II,~10-yr   F14503              
  F143654.1#1                0.66      1.00      3.00  100.0000 SCS~Type~II,~10-yr   F143654.1           
  F143640#1                  1.32      1.00     60.00  100.0000 SCS~Type~II,~10-yr   F143640             
  F14601#1                   0.15      1.00     11.00  100.0000 SCS~Type~II,~10-yr   F14601              
  F14602#1                   0.47      1.00      5.00  100.0000 SCS~Type~II,~10-yr   F14602              
  F14604#1                   1.06      1.00     16.00  100.0000 SCS~Type~II,~10-yr   F14604              
  E153771.02#1               0.69      1.00     73.00  100.0000 SCS~Type~II,~10-yr   E153771.02          
  E143880.01#1               0.99      1.00     52.00  100.0000 SCS~Type~II,~10-yr   E143880.01          
  E145063#1                  1.15      1.00     48.00  100.0000 SCS~Type~II,~10-yr   E145063             
  E147003.3#1                0.92      1.00     71.00  100.0000 SCS~Type~II,~10-yr   E147003.3           
  E143823.5#1                1.27      1.00     82.00  100.0000 SCS~Type~II,~10-yr   E143823.5           
  E143835#1                  5.25      1.00     83.00  100.0000 SCS~Type~II,~10-yr   E143835             
  E134224.2#1                2.26      1.00     14.00  100.0000 SCS~Type~II,~10-yr   E134224.2           
  E143761.1#1                0.71      1.00     83.00  100.0000 SCS~Type~II,~10-yr   E143761.1           
  F139004#1                  1.94      1.00     49.00  100.0000 SCS~Type~II,~10-yr   F139004             
  F139015#1                  2.01      1.00     21.00  100.0000 SCS~Type~II,~10-yr   F139015             
  E143709#1                  1.05      1.00     42.00  100.0000 SCS~Type~II,~10-yr   E143709             
  
  
  ************
  Node Summary
  ************
                                           Invert      Max.    Ponded    External
  Name                 Type                 Elev.     Depth      Area    Inflow  
  -------------------------------------------------------------------------------
  E133474              JUNCTION              5.12      5.14       0.0
  F133469              JUNCTION              5.08      5.11       0.0
  F133463              JUNCTION              7.09      3.13       0.0
  F133462              JUNCTION              6.06      2.75       0.0
  E133473              JUNCTION              4.18      5.32       0.0
  E133464              JUNCTION              3.93      4.62       0.0
  E133478              JUNCTION              6.28      2.58       0.0
  F133464              JUNCTION              2.79      5.62       0.0
  F133459              JUNCTION              2.39      5.51       0.0
  F133452              JUNCTION              4.88      4.27       0.0
  F133448              JUNCTION              2.70      5.20       0.0
  F133451              JUNCTION              2.60      5.53       0.0
  E133481              JUNCTION              6.50      2.24       0.0
  E134209              JUNCTION              0.61      5.75       0.0
  E134267              JUNCTION              5.34      3.11       0.0
  E134266              JUNCTION              5.08      3.80       0.0
  F134230              JUNCTION              0.93      5.00       0.0
  E134222              JUNCTION              0.87      6.42       0.0
  E134219              JUNCTION              0.81      5.99       0.0
  F134231              JUNCTION              3.72      4.27       0.0
  E134203              JUNCTION             -0.35      6.09       0.0
  F134200              JUNCTION              0.47      5.44       0.0
  F134110              JUNCTION              3.13      4.87       0.0
  E134007              JUNCTION              1.21      7.49       0.0
  E134262              JUNCTION              3.33      4.86       0.0
  E134263              JUNCTION              3.42      3.56       0.0
  F134104              JUNCTION              1.30      4.66       0.0
  F134118              JUNCTION              4.34      3.26       0.0
  F134101              JUNCTION             -0.60      6.56       0.0
  F134126              JUNCTION              4.42      3.86       0.0
  E134011              JUNCTION              3.13      5.79       0.0
  F135999              JUNCTION              4.94      4.51       0.0
  E134010              JUNCTION              2.29      6.55       0.0
  F134140              JUNCTION              5.14      4.25       0.0
  E1376                JUNCTION              3.20      3.10       0.0
  E134257              JUNCTION              2.49      4.10       0.0
  E134254              JUNCTION              1.68      5.91       0.0
  E133401              JUNCTION             -0.75      5.30       0.0
  E134255              JUNCTION              3.73      4.19       0.0
  F134147              JUNCTION              5.70      3.31       0.0
  E1371                JUNCTION              2.85      4.13       0.0
  E1369                JUNCTION              1.96      5.16       0.0
  F135012              JUNCTION              7.70      3.30       0.0
  E134288              JUNCTION              2.77      5.01       0.0
  E1368                JUNCTION              1.75      6.02       0.0
  E13152               JUNCTION              3.03      4.26       0.0
  E133394              JUNCTION             -0.89      5.37       0.0
  E1366                JUNCTION              2.10      5.33       0.0
  E13159               JUNCTION              0.61      7.64       0.0
  E134250              JUNCTION              0.85      8.22       0.0
  E1364                JUNCTION              1.39      5.61       0.0
  E13151               JUNCTION              3.13      4.86       0.0
  E13155               JUNCTION              4.48      2.36       0.0
  E134278              JUNCTION              0.59      6.50       0.0
  E14160               JUNCTION              4.07      4.04       0.0
  F143571              JUNCTION              8.98      3.43       0.0
  E143393              JUNCTION             -0.96      5.96       0.0
  E144272              JUNCTION              0.14      7.94       0.0
  F143560              JUNCTION              5.94      5.77       0.0
  E14183               JUNCTION              3.53      3.39       0.0
  E143373              JUNCTION             -1.21      6.84       0.0
  E1456                JUNCTION              3.27      3.69       0.0
  E143304              JUNCTION              4.04      3.72       0.0
  E1458                JUNCTION              3.68      3.24       0.0
  E1459                JUNCTION              0.96      4.72       0.0
  E14181               JUNCTION              3.25      3.45       0.0
  E14182               JUNCTION              2.86      3.64       0.0
  E143374              JUNCTION              1.12      4.45       0.0
  E143369              JUNCTION             -1.18      6.69       0.0
  E1455                JUNCTION              4.44      1.83       0.0
  E1454                JUNCTION              1.00      5.68       0.0
  E14179               JUNCTION              3.40      3.23       0.0
  F143587              JUNCTION             -0.79      8.53       0.0
  E1453                JUNCTION              0.81      6.10       0.0
  F143590              JUNCTION             -0.16      8.26       0.0
  F143575              JUNCTION             -0.83      8.24       0.0
  E143321              JUNCTION              1.43      4.75       0.0
  F143545              JUNCTION              3.68      4.35       0.0
  F143553              JUNCTION             -0.82      7.61       0.0
  F143554              JUNCTION              4.04      3.22       0.0
  F143595              JUNCTION              0.19      5.50       0.0
  F143594              JUNCTION              0.02      5.52       0.0
  E143366              JUNCTION             -1.49      6.22       0.0
  E143356              JUNCTION              1.18      3.99       0.0
  E143355              JUNCTION             -1.02      6.49       0.0
  F143622              JUNCTION              3.46      4.15       0.0
  E143300              JUNCTION              3.41      5.12       0.0
  E1440                JUNCTION              0.55      6.76       0.0
  E143352              JUNCTION             -1.37      5.94       0.0
  E1442                JUNCTION              0.90      5.59       0.0
  E143358              JUNCTION              1.93      3.94       0.0
  E1446                JUNCTION              2.73      3.34       0.0
  E14176               JUNCTION              2.47      4.22       0.0
  F143548              JUNCTION             -3.68     10.15       0.0
  F143532              JUNCTION              3.50      3.35       0.0
  F143617              JUNCTION             -0.83      7.12       0.0
  F143539              JUNCTION              2.49      2.55       0.0
  E143361              JUNCTION             -1.63      5.79       0.0
  E143362              JUNCTION              0.70      3.22       0.0
  E143354              JUNCTION              2.51      3.00       0.0
  E1438                JUNCTION              0.12      6.00       0.0
  F143602              JUNCTION             -0.85      7.84       0.0
  E143351              JUNCTION             -1.68      5.89       0.0
  E1444                JUNCTION              1.19      4.41       0.0
  E1441                JUNCTION              0.45      6.28       0.0
  F143543              JUNCTION             -0.88      6.07       0.0
  E144050              JUNCTION             -1.73      7.22       0.0
  E14124               JUNCTION             -0.18      6.14       0.0
  E143299              JUNCTION              3.51      5.16       0.0
  F143537              JUNCTION             -0.87      6.39       0.0
  E1435                JUNCTION              0.14      5.92       0.0
  F143535              JUNCTION             -0.91      6.44       0.0
  F143529              JUNCTION             -0.98      5.79       0.0
  F143520              JUNCTION             -1.04      6.05       0.0
  F143603              JUNCTION             -0.27      5.82       0.0
  E143319              JUNCTION              0.75      5.16       0.0
  E14128               JUNCTION             -0.14      6.60       0.0
  F143513              JUNCTION              1.43      3.73       0.0
  F143510              JUNCTION              2.18      4.99       0.0
  E14127               JUNCTION              2.80      3.20       0.0
  E143289              JUNCTION              4.49      3.62       0.0
  E1434                JUNCTION             -0.34      7.20       0.0
  E143288              JUNCTION              3.12      4.82       0.0
  E1450                JUNCTION              3.14      4.06       0.0
  F146005              JUNCTION              0.76      7.15       0.0
  F143637              JUNCTION              0.87      5.35       0.0
  E143329              JUNCTION              0.96      2.98       0.0
  F147005              JUNCTION              1.03      5.00       0.0
  F143643              JUNCTION              3.24      3.15       0.0
  E1448                JUNCTION              1.99      4.68       0.0
  E143340              JUNCTION             -0.91      5.96       0.0
  E143339              JUNCTION             -1.33      5.61       0.0
  E143315              JUNCTION              1.22      5.25       0.0
  E143286              JUNCTION              2.13      5.34       0.0
  E143287              JUNCTION              3.38      3.62       0.0
  F146006              JUNCTION              6.87      4.22       0.0
  E143335              JUNCTION             -1.75      6.00       0.0
  E144032              JUNCTION             -1.75      6.00       0.0
  E14116               JUNCTION              2.92      3.57       0.0
  F143648              JUNCTION              4.03      3.10       0.0
  E143327              JUNCTION             -1.87      6.00       0.0
  F143649              JUNCTION              4.77      3.35       0.0
  E144011              JUNCTION             -2.48      6.00       0.0
  E14123               JUNCTION              3.17      2.62       0.0
  E144012              JUNCTION             -1.14      3.84       0.0
  E14120               JUNCTION             -0.25      5.74       0.0
  E143284              JUNCTION              1.73      5.05       0.0
  E144004              JUNCTION             -2.57      6.58       0.0
  E143314              JUNCTION             -2.17      8.24       0.0
  E143989              JUNCTION             -2.27      8.39       0.0
  E143988              JUNCTION             -2.81      8.60       0.0
  F143651              JUNCTION              6.22      2.90       0.0
  E143313              JUNCTION             -2.51     10.13       0.0
  E143987              JUNCTION             -2.51     10.19       0.0
  E144014              JUNCTION             -0.02      4.14       0.0
  E143991              JUNCTION             -1.31      7.60       0.0
  E1428                JUNCTION             -1.00      5.42       0.0
  E143312              JUNCTION             -2.81      9.54       0.0
  E143986              JUNCTION             -3.00      9.95       0.0
  E1425                JUNCTION             -1.10      5.69       0.0
  E143282              JUNCTION              1.31      4.48       0.0
  E144018              JUNCTION              3.05      3.05       0.0
  E143283              JUNCTION              3.12      2.78       0.0
  F146015              JUNCTION              8.66      2.50       0.0
  E143992              JUNCTION              0.46      4.71       0.0
  E143993              JUNCTION              0.81      4.39       0.0
  E14100               JUNCTION             -1.50      8.20       0.0
  E14112               JUNCTION              2.28      2.61       0.0
  E14108               JUNCTION              1.90      6.00       0.0
  E143995              JUNCTION              2.12      3.81       0.0
  E143975              JUNCTION             -3.84     12.04       0.0
  E143979              JUNCTION              1.04      4.76       0.0
  E143999              JUNCTION              1.39      3.19       0.0
  E143994              JUNCTION              2.40      2.54       0.0
  E14106               JUNCTION              0.81      3.31       0.0
  E14109               JUNCTION              2.46      6.00       0.0
  E143280              JUNCTION             -3.48      8.69       0.0
  E14105               JUNCTION             -1.66      5.24       0.0
  E143977              JUNCTION              0.67      7.28       0.0
  E143971              JUNCTION             -3.66      8.67       0.0
  E143278              JUNCTION              0.66      4.05       0.0
  E143277              JUNCTION             -1.05      5.73       0.0
  E14103               JUNCTION              3.00      1.98       0.0
  E144026              JUNCTION              5.06      1.66       0.0
  E144025              JUNCTION              4.22      3.59       0.0
  E143978              JUNCTION              4.19      3.13       0.0
  E143963              JUNCTION             -3.51      8.70       0.0
  E143972              JUNCTION             -1.34      5.23       0.0
  E143274              JUNCTION             -3.00      6.41       0.0
  E143973              JUNCTION             -1.14      4.42       0.0
  F143928              JUNCTION              5.80      4.97       0.0
  F143930              JUNCTION              6.66      3.58       0.0
  E1422                JUNCTION             -2.28      5.69       0.0
  E145050              JUNCTION             -3.51      8.42       0.0
  E143964              JUNCTION             -0.39      4.29       0.0
  E144027              JUNCTION              4.67      4.24       0.0
  E143270              JUNCTION              0.39      3.50       0.0
  F143909              JUNCTION              4.40      7.10       0.0
  E1420                JUNCTION             -2.10      6.43       0.0
  E145052              JUNCTION              0.14      3.31       0.0
  E143267              JUNCTION             -3.67      7.51       0.0
  E143268              JUNCTION              0.03      3.56       0.0
  F143906              JUNCTION              4.16      6.62       0.0
  E143713              JUNCTION             -3.53      7.84       0.0
  F143921              JUNCTION              5.09      5.59       0.0
  E147016              JUNCTION             -3.53      7.53       0.0
  E147013              JUNCTION             -5.31     10.88       0.0
  F143911              JUNCTION              5.78      5.15       0.0
  E143717              JUNCTION             -3.50      7.91       0.0
  F143905              JUNCTION              6.43      3.83       0.0
  E143720              JUNCTION             -1.29      5.69       0.0
  F143922              JUNCTION              6.83      4.08       0.0
  E1416                JUNCTION              0.09      4.95       0.0
  F143902              JUNCTION              3.86      7.45       0.0
  E143723              JUNCTION             -3.63      6.94       0.0
  E147008              JUNCTION             -5.70     10.88       0.0
  E143736              JUNCTION             -3.46      6.71       0.0
  E143746              JUNCTION             -3.10      6.46       0.0
  E145300              JUNCTION             -2.74      7.04       0.0
  E143801              JUNCTION             -2.11      7.22       0.0
  E143885              JUNCTION              4.05      3.39       0.0
  E143884              JUNCTION              3.63      4.69       0.0
  E149                 JUNCTION             -2.54      5.80       0.0
  E143811              JUNCTION             -2.10      7.62       0.0
  E143740              JUNCTION             -0.37      2.93       0.0
  E145067              JUNCTION              2.35      1.29       0.0
  F143913              JUNCTION              6.15      4.33       0.0
  E143794              JUNCTION              2.48      2.60       0.0
  E142                 JUNCTION             -5.47      8.49       0.0
  E143703              JUNCTION             -3.52      7.33       0.0
  E145066              JUNCTION             -0.19      3.81       0.0
  F143899              JUNCTION              3.25      6.41       0.0
  E143741              JUNCTION              0.12      4.03       0.0
  E145303              JUNCTION              2.00      4.50       0.0
  E145304              JUNCTION              2.50      4.50       0.0
  E143818              JUNCTION             -2.05      8.10       0.0
  E145305              JUNCTION              2.20      3.80       0.0
  E143883              JUNCTION              2.86      4.83       0.0
  E143882              JUNCTION              2.47      5.23       0.0
  E143707              JUNCTION             -0.37      4.41       0.0
  E145072              JUNCTION              0.54      3.88       0.0
  E145076              JUNCTION              1.20      2.53       0.0
  E143708              JUNCTION              1.14      3.36       0.0
  E145070              JUNCTION             -0.28      3.59       0.0
  E147004              JUNCTION             -1.64      5.78       0.0
  F143914              JUNCTION              8.12      3.00       0.0
  E145077              JUNCTION              1.53      2.50       0.0
  E147003              JUNCTION             -1.88      6.78       0.0
  E145306              JUNCTION              2.50      4.00       0.0
  E147002              JUNCTION             -2.32      7.42       0.0
  F143892              JUNCTION              3.25      6.75       0.0
  E143840              JUNCTION             -1.58      6.26       0.0
  E145201              JUNCTION             -3.08      4.58       0.0
  E145207              JUNCTION             -0.75      4.25       0.0
  E145206              JUNCTION             -0.95      3.37       0.0
  E145202              JUNCTION             -1.38      4.83       0.0
  E143750              JUNCTION              0.89      7.65       0.0
  E143846              JUNCTION             -1.10      8.63       0.0
  F143891              JUNCTION              2.05      7.08       0.0
  E145308              JUNCTION              3.80      3.70       0.0
  E143849              JUNCTION             -0.83      8.56       0.0
  F143941              JUNCTION              5.13      3.92       0.0
  E143823              JUNCTION              3.80      3.99       0.0
  F143890              JUNCTION              2.00      6.88       0.0
  E143888              JUNCTION              1.37      5.25       0.0
  F143943              JUNCTION              7.67      2.70       0.0
  E143852              JUNCTION             -0.42      9.71       0.0
  E143863              JUNCTION              0.65      7.13       0.0
  E143880              JUNCTION              1.00      5.55       0.0
  E143860              JUNCTION             -0.22      8.80       0.0
  F143947              JUNCTION              3.89      6.17       0.0
  F143951              JUNCTION              3.94      6.30       0.0
  E143757              JUNCTION              1.60      6.12       0.0
  E143759              JUNCTION              1.75      5.55       0.0
  E143853              JUNCTION              3.46      5.20       0.0
  E143798              JUNCTION              5.11      2.85       0.0
  E143829              JUNCTION              5.46      4.09       0.0
  E143760              JUNCTION              1.55      5.90       0.0
  F143952              JUNCTION              4.38      4.10       0.0
  E143857              JUNCTION              4.07      5.51       0.0
  F143953              JUNCTION              5.77      4.20       0.0
  F143958              JUNCTION              6.92      3.92       0.0
  E143872              JUNCTION              3.83      4.27       0.0
  F143949              JUNCTION              4.94      3.62       0.0
  E153868              JUNCTION              4.51      7.00       0.0
  F153955              JUNCTION              6.68      2.25       0.0
  F153956              JUNCTION              6.67      2.28       0.0
  E153770              JUNCTION              4.57      3.80       0.0
  F153959              JUNCTION              7.62      3.18       0.0
  E153873              JUNCTION              4.69      7.06       0.0
  E153875              JUNCTION              5.87      4.22       0.0
  E153874              JUNCTION              6.35      3.87       0.0
  F153938              JUNCTION              8.02      2.45       0.0
  E146003              JUNCTION             -1.86      7.14       0.0
  E146004              JUNCTION             -1.69      9.69       0.0
  E146002              JUNCTION             -1.99      9.50       0.0
  E144034              JUNCTION              3.79      2.46       0.0
  E145010              JUNCTION             -2.29      6.79       0.0
  E145011              JUNCTION              3.17      5.52       0.0
  F147143              JUNCTION              2.25      8.87       0.0
  F147147              JUNCTION              5.24      8.03       0.0
  F147148              JUNCTION              5.90      6.54       0.0
  F147148.1            JUNCTION              6.50      7.75       0.0
  F13290               JUNCTION              5.39      6.00       0.0
  F13292               JUNCTION              5.70      4.49       0.0
  F13295               JUNCTION              6.15      4.16       0.0
  F147004              JUNCTION              1.16      6.34       0.0
  F13259               JUNCTION              0.97      8.14       0.0
  F13260               JUNCTION              3.95      4.90       0.0
  F133438              JUNCTION              1.26      4.85       0.0
  F13250               JUNCTION              0.62      9.04       0.0
  F13251               JUNCTION              0.96      8.95       0.0
  F13252               JUNCTION              2.08      7.68       0.0
  F13255               JUNCTION              2.63      6.50       0.0
  F13264               JUNCTION              2.08      8.80       0.0
  F13269               JUNCTION              2.15      8.68       0.0
  F13274               JUNCTION              4.87      6.34       0.0
  F13277               JUNCTION              4.93      6.65       0.0
  F13281               JUNCTION              5.36      5.40       0.0
  F13289               JUNCTION              7.09      3.86       0.0
  F143656              JUNCTION              1.40      6.34       0.0
  F143661              JUNCTION              1.65      5.64       0.0
  F143662              JUNCTION              1.46      5.72       0.0
  F143665              JUNCTION              1.92      4.86       0.0
  F143670              JUNCTION              3.29      3.58       0.0
  F143671              JUNCTION              3.70      3.58       0.0
  F143674              JUNCTION              3.86      3.91       0.0
  F143676              JUNCTION              4.18      3.82       0.0
  F143682.01           JUNCTION              4.33      4.09       0.0
  F143692              JUNCTION              5.08      3.83       0.0
  F143693              JUNCTION              5.27      5.56       0.0
  F143701              JUNCTION              3.30      7.51       0.0
  F143702              JUNCTION              4.64      6.35       0.0
  F143705              JUNCTION              7.08      4.05       0.0
  F143707              JUNCTION              4.93      6.20       0.0
  F143708              JUNCTION              5.13      5.61       0.0
  F144001              JUNCTION              4.37      2.25       0.0
  F145017              JUNCTION              7.45      2.66       0.0
  F147020              JUNCTION              6.05      5.15       0.0
  F149001.2            JUNCTION              6.37      3.83       0.0
  F143648.1            JUNCTION              6.20      3.40       0.0
  E133483              JUNCTION              5.38      4.54       0.0
  E14124.01            JUNCTION              2.89      3.45       0.0
  E145205              JUNCTION             -1.16      4.13       0.0
  E147004.01           JUNCTION              1.05      3.40       0.0
  E145068.01           JUNCTION              0.58      2.88       0.0
  E147013.02           JUNCTION             -5.18     12.84       0.0
  E143884.01           JUNCTION              3.89      4.50       0.0
  E143996.01           JUNCTION              3.40      2.75       0.0
  F143512              JUNCTION             -1.50      8.60       0.0
  F143636              JUNCTION              0.34      5.35       0.0
  F139025              JUNCTION              6.02      2.82       0.0
  F139026              JUNCTION              4.51      3.69       0.0
  F139028              JUNCTION              4.13      3.20       0.0
  F139029              JUNCTION              3.59      2.90       0.0
  F139031              JUNCTION              2.77      3.85       0.0
  E134217              JUNCTION              3.46      5.09       0.0
  E134213              JUNCTION              2.09      4.42       0.0
  F13291               JUNCTION              5.48      4.44       0.0
  F149020              JUNCTION              6.33      3.95       0.0
  F149012              JUNCTION              2.63      9.12       0.0
  F149011              JUNCTION              5.60      5.14       0.0
  F149025              JUNCTION              7.59      3.61       0.0
  F149015              JUNCTION              4.44      7.97       0.0
  F14504               JUNCTION              1.55      7.17       0.0
  F149032              JUNCTION              0.86      4.50       0.0
  F14502               JUNCTION              1.32      7.00       0.0
  F14503               JUNCTION              1.19      6.80       0.0
  F143654.1            JUNCTION              0.85      4.44       0.0
  F143637.1            JUNCTION             -4.85      9.84       0.0
  F143640              JUNCTION              1.54      4.81       0.0
  F14601               JUNCTION              2.46      6.81       0.0
  F14602               JUNCTION              2.47      6.79       0.0
  F14603               JUNCTION              3.23      6.02       0.0
  F14604               JUNCTION              3.80      6.04       0.0
  E1427.5              JUNCTION              2.19      3.40       0.0
  E14102.2             JUNCTION              2.60      3.20       0.0
  E153771.02           JUNCTION              5.85      2.53       0.0
  E143880.01           JUNCTION              2.30      4.70       0.0
  F13260.03            JUNCTION              4.79      5.11       0.0
  F13260.01            JUNCTION              4.22      4.68       0.0
  E145068.05           JUNCTION              0.80      3.40       0.0
  F143889              JUNCTION              1.58      6.57       0.0
  F14501.1             JUNCTION              1.00      1.25       0.0
  F149001.1            JUNCTION             -4.96      9.96       0.0
  F149002.1            JUNCTION             -2.46      4.96       0.0
  E145063              JUNCTION             -2.51      5.97       0.0
  F144005.1            JUNCTION              2.00      4.50       0.0
  E143393.1            JUNCTION              3.70      2.70       0.0
  E147003.3            JUNCTION             -0.50      4.70       0.0
  E147003.7            JUNCTION             -0.25      3.25       0.0
  E143823.5            JUNCTION              1.89      4.57       0.0
  E143835              JUNCTION             -1.68      6.10       0.0
  E134224.2            JUNCTION              6.08      2.42       0.0
  E134224.1            JUNCTION              4.38      2.42       0.0
  E153772.02           JUNCTION              5.24      3.70       0.0
  E143761.1            JUNCTION              1.66      5.95       0.0
  F14601.1             JUNCTION             -2.21      6.67       0.0
  F139018              JUNCTION              4.62      2.00       0.0
  F139004              JUNCTION              6.80      4.28       0.0
  F139015              JUNCTION              4.58      4.94       0.0
  E143709              JUNCTION             -3.52      8.84       0.0
  E141                 OUTFALL              -5.50      3.50       0.0
  E147007              OUTFALL              -0.51      5.50       0.0
  E143250              OUTFALL              -3.54      6.00       0.0
  E143699              OUTFALL              -3.52      6.00       0.0
  E145200              OUTFALL              -3.20      2.50       0.0
  
  
  ************
  Link Summary
  ************
  Name             From Node        To Node          Type            Length    %Slope Roughness
  ---------------------------------------------------------------------------------------------
  294              F13264           F13259           CONDUIT          506.9    0.2190    0.0120
  798              F13274           F13269           CONDUIT          105.5    2.5803    0.0120
  799              F13269           F13264           CONDUIT           89.4    0.0783    0.0120
  800              F13277           F13274           CONDUIT          213.1    0.0282    0.0120
  804              F13281           F13277           CONDUIT          165.3    0.2601    0.0120
  807              F13289           F13281           CONDUIT          517.3    0.3344    0.0120
  815              F143702          F143701          CONDUIT           89.6    1.4959    0.0120
  1037             F143707          F143701          CONDUIT          230.1    0.7084    0.0120
  1056             F13251           F13250           CONDUIT           84.5    0.4023    0.0120
  1062             F13255           F13252           CONDUIT          204.1    0.2695    0.0120
  1063             F13252           F13251           CONDUIT           55.8    2.0079    0.0120
  1067             F143705          F143702          CONDUIT          106.2    2.2973    0.0120
  1068             F145017          F143656          CONDUIT          504.0    1.2004    0.0120
  1070             F147020          F143693          CONDUIT          455.2    0.1714    0.0120
  1075             F143692          F143693          CONDUIT          221.9   -0.0856    0.0120
  1120             F143671          F143670          CONDUIT           82.9    0.4947    0.0150
  1127             F143682.01       F143676          CONDUIT          155.9    0.0962    0.0120
  1131             F143676          F143674          CONDUIT           35.7    0.8966    0.0150
  1132             F143674          F143671          CONDUIT           97.0    0.1649    0.0150
  1134             F143665          F143662          CONDUIT          172.9    0.2661    0.0120
  1135             F143662          F143661          CONDUIT           92.8   -0.2047    0.0120
  1142             F143692          F143674          CONDUIT          328.2    0.3717    0.0150
  1145             F144001          F143671          CONDUIT          174.2    0.3847    0.0150
  1165             F143682.01       F143648.1        CONDUIT          322.6   -0.5796    0.0150
  1167             F143648.1        F149001.2        CONDUIT          166.6   -0.1021    0.0140
  1172             F143661          F143656          CONDUIT           44.8    0.5579    0.0120
  1549             F143701          F13250           CONDUIT          262.4    1.0212    0.0120
  1556             F143670          F143665          CONDUIT          187.7    0.7301    0.0150
  8943             F133463          F133462          CONDUIT          254.6    0.4045    0.0120
  9225             F133464          F133459          CONDUIT           45.0    0.8883    0.0140
  9237             E133481          E133478          CONDUIT          133.8    0.1644    0.0150
  9246             F133459          F133448          CONDUIT           56.6   -0.5478    0.0120
  11880            F143553          F143548          CONDUIT          173.3    1.6510    0.0120
  11883            F143575          F143617          CONDUIT          238.5    0.0004    0.0120
  11886            E1453            E1440            CONDUIT          126.7    0.2053    0.0120
  11888            E143355          E143352          CONDUIT           68.0    0.5149    0.0120
  11890            E143358          E143355          CONDUIT           66.2    4.4627    0.0120
  11898            F134140          F135999          CONDUIT          121.7    0.1644    0.0120
  12071            E134262          E134254          CONDUIT          344.0    0.4797    0.0120
  12076            E134010          E134007          CONDUIT          201.2    0.5367    0.0150
  12077            E134011          E134010          CONDUIT          147.7    0.5689    0.0150
  12610            F133452          F133451          CONDUIT          327.9    0.6953    0.0120
  12611            F133451          F133448          CONDUIT          135.6   -0.0737    0.0120
  12615            F134230          F134200          CONDUIT          235.3    0.1955    0.0120
  12646            E134254          E134250          CONDUIT          360.9    0.2300    0.0120
  12651            E1369            E1368            CONDUIT           76.2    0.2755    0.0120
  12652            E1371            E1368            CONDUIT          412.1    0.2669    0.0120
  13146            E134222          E134219          CONDUIT           59.7    0.1005    0.0120
  13151            F134231          F134230          CONDUIT           90.8    3.0755    0.0120
  13185            F143603          F143602          CONDUIT          117.5    0.4937    0.0140
  13207            F143595          F143594          CONDUIT           40.5    0.4193    0.0120
  13450            E143362          E143361          CONDUIT           74.9    3.1140    0.0120
  13598            E1435            E14128           CONDUIT          185.5    0.1509    0.0150
  13629            E133473          E133464          CONDUIT          348.4    0.0718    0.0120
  13661            F133462          F133459          CONDUIT          236.8    1.5500    0.0120
  13672            E133478          E133473          CONDUIT          206.5    1.0170    0.0120
  13675            E133464          F133464          CONDUIT          382.4    0.2981    0.0120
  13703            F133469          E133464          CONDUIT          310.7    0.3701    0.0120
  13752            F134101          E133401          CONDUIT          355.6    0.0422    0.0120
  13822            E134267          E134266          CONDUIT           64.3    0.4044    0.0120
  13860            E133474          E133473          CONDUIT          236.9    0.3968    0.0120
  13919            E134257          E134254          CONDUIT           46.8    1.7310    0.0120
  13920            E1376            E1371            CONDUIT          256.8    0.1363    0.0120
  13928            E134255          E134254          CONDUIT           32.0    6.4134    0.0120
  13936            F135012          F135999          CONDUIT          381.3    0.7239    0.0140
  14157            E134203          F134200          CONDUIT          240.0   -0.3417    0.0120
  14182            E134007          E134222          CONDUIT          210.9    0.1612    0.0120
  14185            F134118          F134110          CONDUIT          321.9    0.3759    0.0120
  14193            E134266          E134262          CONDUIT          269.8    0.6487    0.0120
  14194            E134263          E134262          CONDUIT           61.1    0.1472    0.0120
  14205            F134110          F134104          CONDUIT          419.0    0.4368    0.0120
  14208            E134209          E134203          CONDUIT          321.5    0.2986    0.0120
  14212            E134219          E134217          CONDUIT          248.3   -1.0672    0.0120
  14257            F143539          F143537          CONDUIT           68.7    4.8988    0.0150
  14259            F143548          F143543          CONDUIT          242.4   -1.1550    0.0120
  14264            E143351          E144050          CONDUIT           29.4    0.1701    0.0120
  14281            F143532          F143529          CONDUIT          146.1    3.0683    0.0120
  14284            E14124           E1435            CONDUIT           59.2   -0.5405    0.0150
  14288            F143537          F143535          CONDUIT           79.4    0.0504    0.0120
  14293            F143535          F143529          CONDUIT           64.3    0.1089    0.0120
  14318            E143288          E143286          CONDUIT          176.2    0.5619    0.0120
  14319            E143287          E143286          CONDUIT           79.5    1.5717    0.0120
  14352            F134200          F134101          CONDUIT           34.0    3.1486    0.0120
  14414            E1438            E14124           CONDUIT           63.8    0.4700    0.0150
  14417            E143300          E143299          CONDUIT          112.2   -0.0891    0.0120
  14418            F143543          F143537          CONDUIT           79.4   -0.0126    0.0120
  14444            E1448            E1444            CONDUIT          368.7    0.2170    0.0120
  14445            E1450            E1448            CONDUIT          118.9    0.9676    0.0120
  14458            F143930          F143928          CONDUIT          108.0    0.7965    0.0120
  14537            F143571          F143560          CONDUIT          308.3    0.9862    0.0140
  14591            E14128           E1434            CONDUIT          111.2    0.1799    0.0150
  14596            F146005          F143603          CONDUIT          166.6    0.6183    0.0140
  14632            E133401          E133394          CONDUIT          300.3    0.0466    0.0120
  14665            E1458            E1456            CONDUIT          138.6    0.2958    0.0120
  14702            E143313          E143312          CONDUIT          208.7    0.1438    0.0120
  14708            E143987          E143986          CONDUIT          205.9    0.2380    0.0120
  14776            E1366            E1364            CONDUIT          100.2    0.7084    0.0120
  14777            E1368            E1364            CONDUIT          112.1    0.3211    0.0120
  14793            E13152           E13151           CONDUIT          103.0   -0.0971    0.0120
  14794            E13151           E1366            CONDUIT          160.2    0.6430    0.0120
  14796            E134288          E134278          CONDUIT          219.7    0.9921    0.0120
  14803            E13155           E13152           CONDUIT          174.4    0.8315    0.0120
  14805            E134250          E134278          CONDUIT          281.9    0.0922    0.0120
  14817            E14160           E13159           CONDUIT          116.8    2.9644    0.0120
  14838            E133394          E143393          CONDUIT          140.0    0.0500    0.0120
  14864            E143993          E143988          CONDUIT          235.5    1.5375    0.0120
  14869            E143992          E143991          CONDUIT          176.1    1.0051    0.0120
  14916            E144011          E144004          CONDUIT          111.0    0.0811    0.0120
  14978            E144272          E143373          CONDUIT          425.9    0.3170    0.0120
  15021            E1364            E1459            CONDUIT          371.8    0.1157    0.0120
  15023            E14181           E1459            CONDUIT           90.1    2.5416    0.0120
  15025            E143373          E143369          CONDUIT          205.0   -0.0146    0.0120
  15026            E14183           E14182           CONDUIT           95.0    0.7051    0.0120
  15027            E14182           E14181           CONDUIT           85.5   -0.4564    0.0120
  15036            E143374          E143373          CONDUIT           63.1    3.6945    0.0120
  15045            E1456            E1455            CONDUIT          138.1   -0.8470    0.0120
  15072            E1459            E1454            CONDUIT           72.7   -0.0551    0.0120
  15073            E1455            E1454            CONDUIT           65.8    5.2311    0.0120
  15114            E1454            E1453            CONDUIT          158.1    0.1202    0.0120
  15115            F143587          F143575          CONDUIT          230.2    0.0174    0.0120
  15119            F143590          F143587          CONDUIT          205.7    0.3063    0.0120
  15147            F143554          F143553          CONDUIT           62.2    7.8387    0.0140
  15156            E143369          E143366          CONDUIT          191.9    0.1615    0.0120
  15165            E14179           E14176           CONDUIT          166.6    0.5583    0.0120
  15170            E143356          E143355          CONDUIT           67.5    3.2600    0.0120
  15175            E143304          E143300          CONDUIT          248.7    0.2533    0.0120
  15189            E1440            E1438            CONDUIT           78.5    0.5477    0.0120
  15190            E143354          E143352          CONDUIT           75.7    5.1309    0.0120
  15192            F143617          F143602          CONDUIT           95.6    0.0209    0.0120
  15204            E143361          E143351          CONDUIT           29.3    0.1709    0.0120
  15205            E143352          E143351          CONDUIT          136.0    0.2279    0.0120
  15211            E1444            E1442            CONDUIT           79.3    0.3655    0.0120
  15212            E1446            E1444            CONDUIT          119.0    1.2944    0.0120
  15221            E1441            E1440            CONDUIT           86.3   -0.1159    0.0120
  15222            E1442            E1441            CONDUIT          121.2    0.3713    0.0120
  15230            E14176           E14128           CONDUIT          213.7    1.2217    0.0120
  15255            E14127           E14124           CONDUIT          175.2    1.7015    0.0120
  15275            E144027          E144025          CONDUIT          178.3    0.2523    0.0120
  15321            E143299          E143288          CONDUIT          208.3    0.1873    0.0120
  15322            E143289          E143288          CONDUIT           79.3    1.7285    0.0120
  15363            F143637          F143637.1        CONDUIT           64.9    8.8535    0.0120
  15373            F147005          F143637          CONDUIT          223.8    0.0715    0.0120
  15374            F143643          F143640          CONDUIT           86.7    1.9614    0.0120
  15377            F143656          F147005          CONDUIT          245.6    0.1506    0.0120
  15385            E143989          E143988          CONDUIT           54.2    0.9956    0.0120
  15389            F143651          F143649          CONDUIT          249.7    0.5808    0.0120
  15399            E143314          E143313          CONDUIT          301.0    0.1130    0.0120
  15416            F146006          F146005          CONDUIT          237.5    2.5737    0.0140
  15429            E1434            E14120           CONDUIT          396.4   -0.0227    0.0120
  15433            F143648          F143643          CONDUIT          211.6    0.3734    0.0120
  15444            E143286          E143284          CONDUIT          148.5    0.2694    0.0120
  15453            E143335          E143327          CONDUIT          109.7    0.1094    0.0120
  15455            F143649          F143648          CONDUIT           34.6    2.1386    0.0120
  15459            E144032          E144011          CONDUIT           97.2    0.7509    0.0120
  15475            E143340          E143339          CONDUIT           71.5    0.5877    0.0120
  15482            E144014          E144012          CONDUIT          124.6    0.8992    0.0120
  15490            E14116           E1428            CONDUIT          344.4    1.1384    0.0120
  15499            E143339          E143335          CONDUIT          141.3    0.2973    0.0120
  15518            E144026          E144025          CONDUIT           87.3    0.9622    0.0120
  15523            E143284          E143282          CONDUIT          236.1    0.1779    0.0120
  15578            E143268          E143267          CONDUIT           85.6    4.3270    0.0120
  15584            F143909          F143906          CONDUIT           51.7    0.4645    0.0120
  15592            E145305          E145303          CONDUIT           42.7    0.4685    0.0150
  15596            E143884          E143883          CONDUIT          167.4    0.4601    0.0120
  15628            E14123           E14120           CONDUIT          173.4    1.9726    0.0120
  15634            E144012          E144011          CONDUIT           20.9    6.4278    0.0120
  15640            E143283          E143282          CONDUIT           47.0    3.8515    0.0120
  15644            E143327          E143314          CONDUIT          288.4    0.1040    0.0120
  15646            F146015          F146006          CONDUIT          347.3    0.5154    0.0140
  15670            E144018          E144014          CONDUIT          143.2    2.1445    0.0120
  15677            E1428            E1425            CONDUIT           62.4    0.1603    0.0120
  15679            E143986          E143975          CONDUIT          223.9    0.3751    0.0120
  15689            E143282          E143280          CONDUIT          165.7    2.8918    0.0120
  15691            E14109           E14108           CONDUIT          147.2    0.3805    0.0120
  15699            E14100           E14105           CONDUIT           48.8    0.3277    0.0120
  15703            E143979          E143977          CONDUIT          189.4    0.1953    0.0120
  15704            E143977          E143975          CONDUIT          163.3    2.7628    0.0120
  15746            E143963          E145050          CONDUIT          156.2    0.0006    0.0120
  15753            E143964          E143963          CONDUIT          107.9    2.8930    0.0120
  15766            E143274          E147013          CONDUIT          385.8    0.5987    0.0120
  15775            E143975          E143971          CONDUIT          123.9   -0.1452    0.0120
  15805            E144025          E144018          CONDUIT          268.4    0.4360    0.0150
  15819            E143278          E143277          CONDUIT           68.0    2.5144    0.0120
  15849            E1422            E1420            CONDUIT          136.7   -0.1317    0.0150
  15906            E143993          E143992          CONDUIT           31.3    1.1197    0.0120
  15909            E1425            E14100           CONDUIT          119.0    0.3361    0.0120
  15912            E14112           E14108           CONDUIT           74.7    0.5089    0.0120
  15914            E143312          E143280          CONDUIT          333.9    0.2006    0.0120
  15915            E143995          E143993          CONDUIT           64.5    2.0321    0.0120
  15916            E143996.01       E143995          CONDUIT          193.2    0.6624    0.0120
  15958            E14103           E14100           CONDUIT          240.0    1.8754    0.0120
  15962            E143994          E143993          CONDUIT           74.4    2.1384    0.0120
  15964            E14108           E14106           CONDUIT          127.6    0.8543    0.0120
  15974            E143973          E143972          CONDUIT           78.7    0.2542    0.0120
[...]
  15021                       1.23      1.23      1.61      0.01         0.01
  15023                       1.11      1.11      3.02      0.01         0.01
  15025                      13.40     13.40     13.54      2.30         0.04
  15026                       0.91      0.91      1.43      0.01         0.01
  15027                       1.11      1.11      1.43      0.01         0.01
  15036                       8.95      8.95     15.14      0.01         0.01
  15045                       0.41      0.41     14.70      0.01         0.01
  15072                       1.52      1.52      1.61      0.66         0.01
  15073                       0.15      0.15      2.68      0.01         0.01
  15114                       1.52      1.52      1.76      0.01         0.06
  15115                       7.33      7.34      7.54      0.01         0.55
  15119                       5.66      5.66      7.34      0.01         0.01
  15147                       0.01      0.01     12.38      0.01         0.01
  15156                       4.66      4.66      5.29      0.01         0.01
  15165                       0.48      0.48      1.66      0.01         0.01
  15170                       8.65      8.65     17.62      0.01         0.01
  15175                       0.36      0.36      0.56      0.01         0.01
  15189                       1.32      1.32      1.89      0.01         0.01
  15190                       4.75      4.75     13.29      0.01         0.01
  15192                       7.45      7.48      7.62      0.01         1.56
  15204                       5.58      5.58      5.70      0.01         0.01
  15205                      18.11     18.11     19.46      0.56         0.56
  15211                       1.86      1.86      2.05      0.01         0.01
  15212                       1.59      1.59      2.68      0.01         0.01
  15221                       2.25      2.25      2.31      0.01         0.01
  15222                       2.05      2.05      2.31      0.01         0.01
  15230                       1.66      1.66      5.40      0.01         0.01
  15255                       1.18      1.18     12.05      0.01         0.01
  15275                       0.68      0.68      0.81      0.01         0.01
  15321                       0.31      0.31      0.38      0.01         0.01
  15322                       0.28      0.28      0.59      0.01         0.01
  15363                       0.01      0.01     20.87      0.01         0.01
  15373                      11.82     11.82     12.13      6.45         6.60
  15377                       0.01      0.01      2.54      0.01         0.01
  15416                       0.01      0.01     12.24      0.01         0.01
  15429                       1.16      1.16      1.73      1.29         0.01
  15433                       0.01      0.01      0.01      0.14         0.01
  15444                       0.22      0.86      0.22      1.04         0.22
  15475                      13.74     13.74     15.85      0.01         0.01
  15482                       1.41      1.43      1.51      1.30         1.26
  15490                       0.31      0.31     20.63      0.01         0.01
  15499                       2.15     17.23      2.15     19.28         2.15
  15518                       0.65      0.65      0.81      0.01         0.01
  15578                       0.01      0.01     11.14      0.01         0.01
  15584                       1.35      1.35      1.37      1.07         1.07
  15592                       0.02      0.02      0.39      0.01         0.01
  15596                       0.53      0.53      0.76      0.01         0.01
  15628                       0.36      0.36      5.47      0.01         0.01
  15634                       1.40      1.40      2.54      0.01         0.01
  15670                       0.01      0.01      1.19      0.01         0.01
  15677                       2.18      2.18      2.24      0.12         0.11
  15679                       0.01      0.01      0.20      0.01         0.01
  15689                       0.01      0.01      1.74      0.01         0.01
  15699                       2.52      2.52      2.66      0.01         0.01
  15703                       0.12      0.12      0.35      0.01         0.01
  15704                       0.01      0.01      1.46      0.01         0.01
  15746                       0.01      0.01      0.01      2.11         0.01
  15753                       1.08      1.08      9.63      0.01         0.01
  15775                       0.09      0.09      0.20      0.01         0.01
  15805                       0.40      0.81      0.40      0.96         0.40
  15819                       0.01      0.01      0.22      0.01         0.01
  15906                       0.26      0.26      0.60      0.01         0.01
  15909                       2.24      2.24      2.52      0.01         0.01
  15912                       1.79      1.79      2.09      0.01         0.01
  15915                       0.01      0.01      0.38      0.01         0.01
  15958                       0.01      0.01     12.02      0.01         0.01
  15962                       0.01      0.01      0.15      0.01         0.01
  15964                       2.09      2.09      2.86      0.01         0.01
  15974                       1.49      1.49      1.61      0.01         0.01
  15993                       0.01      0.01      0.01      0.23         0.01
  16017                       0.01      0.01      0.14      0.17         0.01
  16032                       0.30      0.30      2.63      0.01         0.01
  16051                       1.41      1.41     21.36      0.01         0.01
  16055                       0.72      0.72      0.74      0.39         0.36
  16097                       1.30      1.33      1.41      0.93         0.88
  16109                       1.30      1.31      1.33      0.90         0.86
  16148                       0.01      0.01      0.01     19.11         0.01
  16154                       0.01      0.01      0.07      0.01         0.01
  16155                       0.01      0.01      0.01      9.56         0.01
  16181                       0.83      0.83      1.07      0.78         0.77
  16293                       1.46      1.46      8.32      0.01         0.01
  16322                       1.04      1.04      1.42      0.01         0.01
  16323                       1.04      1.04      1.27      0.01         0.01
  16345                       0.95      0.98      0.95      2.81         0.94
  16374                       0.85      0.92      0.85     16.98         0.85
  16424                       0.84      0.85      0.92      0.44         0.42
  16431                       0.77      0.77      0.83      0.01         0.01
  16441                       1.06      1.06      5.82      0.01         0.01
  16456                       0.59      0.63      0.59      1.23         0.58
  16559                       0.01      0.01      0.83      0.01         0.01
  16563                       1.06      1.06      3.73      0.01         0.01
  16588                       1.17      1.27      1.17      1.44         1.10
  16589                       0.70      0.70      1.50      0.01         0.01
  16607                       0.01      0.01      0.07      0.01         0.01
  16609                       0.01      0.01      1.33      0.01         0.01
  16652                       1.15      1.15      1.27      0.01         0.01
  16660                       1.08      1.08      1.15      0.01         0.03
  16679                       0.95      0.95      1.08      0.01         0.01
  16711                       1.68      1.68     21.58      0.01         0.01
  16726                       1.02      1.02      1.13      0.01         0.01
  16741                       1.02      1.17      1.02      1.32         1.02
  16743                       1.37      1.37      1.68      0.01         0.01
  16750                       0.01      0.01     11.98      0.01         0.01
  16751                       0.01      0.01      0.67      0.01         0.01
  16760                       0.98      0.99      0.98      1.32         0.92
  16763                       0.76      0.76      0.84      0.01         0.01
  16769                       0.01      0.01     11.93      0.01         0.01
  16783                       0.01      0.22      0.01      0.29         0.01
  16788                       0.01      0.01      0.20      0.01         0.01
  16798                       0.12      0.12      0.78      0.01         0.01
  16803                       0.94      0.94      0.99      0.01         0.01
  16819                       0.87      0.87      1.10      0.01         0.01
  16821                       0.20      0.20      0.22      0.06         0.06
  16823                       0.01      0.01      0.01      0.45         0.01
  16827                       0.01      0.01      0.02      0.01         0.01
  16830                       0.01      0.01      0.01      0.35         0.01
  16895                       0.01      0.01      0.82      0.01         0.01
  16952                       1.31      1.31      1.45      0.61         0.01
  16970                       0.56      0.56      0.77      3.03         0.01
  16979                       0.20      0.20      0.30      0.01         0.01
  16983                       0.80      0.80      0.94      0.01         0.01
  17081                       0.83      0.83      0.92      0.13         0.14
  17098                       0.73      0.73      2.54      0.01         0.01
  17128                       0.01      0.01      0.14      0.01         0.01
  17136                       0.67      0.67      0.77      0.01         0.01
  17147                       0.14      0.14      0.30      0.01         0.01
  17178                       0.01      0.01      0.30      0.01         0.01
  17195                       0.21      0.21      0.48      0.01         0.01
  17197                       0.48      0.48      0.67      0.01         0.01
  17205                       0.34      0.34      0.73      0.22         0.22
  17248                       0.19      0.19      0.31      0.01         0.01
  17258                       0.13      0.22      0.13      0.63         0.13
  17267                       0.42      0.42      0.73      0.01         0.01
  17287                       0.22      0.30      0.22      0.47         0.22
  17303                       0.25      0.25      0.56      0.12         0.12
  17313                       0.29      0.29      1.21      0.19         0.01
  17317                       0.94      0.94      1.41      0.01         0.01
  17336                       0.51      0.51      0.56      0.18         0.18
  17403                       0.19      0.19      0.22      0.01         0.01
  21064                       5.83      5.83      6.12      0.01         0.01
  21065                       5.70      5.70      5.83      0.33         0.39
  21068                       7.69      7.69      8.20      0.01         0.01
  21082                       0.01      0.01      2.25      0.01         0.01
  21084                       0.01      0.01     19.79      0.01         0.01
  21103                       4.75      4.75      4.96      0.53         0.56
  21105                       0.01      0.01      4.75      0.01         0.01
  21237                       0.01      0.01      4.21      0.01         0.01
  21241                       0.01      0.01      5.09      0.01         0.01
  21261                       5.43      5.43      6.21      0.01         0.01
  22017                       0.76      0.76     11.75      0.01         0.01
  22426                       5.80      5.80      6.25      4.20         4.23
  23483                       3.31      3.31      4.06      0.01         0.01
  23487                       4.21      4.21      5.80      2.59         2.59
  23491                       7.61      7.62      7.91      0.01         0.39
  23493                       5.29      5.29      5.58      0.01         0.01
  23496                       3.80      3.80      4.05      0.01         0.01
  23498                       0.74      0.74      1.05      0.01         0.01
  23501                       4.05      4.05      5.32      0.01         0.01
  23503                       5.94      5.94     17.57      0.01         0.01
  23504                       0.95      0.95     16.72      0.01         0.01
  23506                       5.32      5.32      5.70      0.01         0.01
  23507                       0.28      0.33      0.28      1.24         0.28
  23511                       0.17      0.17      0.33      0.01         0.01
  23513                       2.76      2.76      8.83      0.01         0.01
  23516                       0.80      0.80      1.30      0.29         0.29
  23521                       0.01      0.01      1.30      0.77         0.01
  23524                       1.17      1.17      2.13      0.01         0.01
  23529                      18.86     18.86     21.04      3.12         3.31
  23533                       2.86      2.86     21.14      0.01         0.01
  23540                       8.20      8.20      9.51      0.01         0.01
  23541                      15.85     15.85     19.79      0.01         0.01
  23544                       0.24      0.24      7.57      0.01         0.01
  23546                       1.46      1.46      2.26      0.01         0.01
  23551                       0.01      0.01      0.18      0.01         0.01
  23553                       0.09      0.09      0.21      0.01         0.01
  23554                       0.22      0.22      1.05      0.01         0.01
  23555                       0.01      0.01      0.42      0.01         0.01
  23560                       3.86      3.86      4.66      0.01         0.01
  23564                       4.94      4.94      5.30      0.01         0.01
  23566                       7.46      7.48      7.54      0.01         2.01
  23567                       0.01      0.01     18.08      0.01         0.01
  23570                       6.33      6.33      7.74      0.09         0.11
  23572                       7.04      7.04      7.90      0.01         0.01
  23574                       0.70      0.70      0.85      0.01         0.01
  23576                       1.10      1.10      7.41      0.01         0.01
  23577                       1.16      1.16      2.18      0.01         0.01
  23583                       0.73      0.73     12.52      0.01         0.01
  23585                       0.57      0.57      0.66      0.01         0.01
  23586                       0.78      0.85      0.81      0.34         0.24
  23587                       0.73      0.73      0.81      0.01         0.01
  23588                       0.59      0.59      0.70      0.01         0.01
  23589                       0.92      0.92      0.94      0.49         0.44
  23590                       0.50      0.50      0.74      0.28         0.28
  23591                       1.27      1.27      1.35      0.01         0.01
  23592                       0.79      0.79      9.60      0.01         0.01
  23597                      11.14     11.14     20.36      0.01         0.01
  23598                       0.01      0.01     16.63      0.01         0.01
  23608                       0.01      0.01      0.78      0.01         0.01
  23612                       0.01      0.01     11.81      0.01         0.01
  23613                       0.01      0.01      1.13      0.01         0.01
  23615                       1.98      1.98      3.76      0.01         0.01
  23619                       1.27      1.27      1.33      0.01         0.16
  23621                       0.74      0.83      0.74      1.86         0.74
  23627                       0.70      0.74      0.70      5.62         0.70
  23628                       0.01      0.01      0.01      0.45         0.01
  23647                       0.24      0.24     18.60      0.01         0.01
  23648                      18.47     18.47     18.54      0.01         0.01
  23650                      18.54     18.54     18.92      0.18         0.18
  23655                      18.56     18.56     19.25      0.01         0.01
  23657                      19.25     19.25     20.18      0.01         0.01
  23677                       0.10      0.10      0.26      0.01         0.01
  23678                       0.01      0.01      0.15      0.01         0.01
  23679                       0.01      0.01      0.15      0.01         0.01
  23682                       0.01      0.01      9.59      0.01         0.01
  23689                      13.02     13.02     21.65      0.01         0.01
  23690                      20.87     20.87     20.88      0.01         0.01
  23693                       4.02      4.02      4.05      0.05         0.29
  23694                       0.01      0.01      0.18      0.01         0.01
  23695                       0.18      0.18      4.89      0.01         0.01
  23716                       1.87      1.87     12.10      0.01         0.01
  23717                       0.21      0.21      1.87      0.01         0.01
  23732                       0.02      0.02      0.75      0.01         0.01
  23734                       0.75      0.75      4.92      0.01         0.03
  23739                       0.01      0.01      0.57      0.01         0.01
  23742                      11.81     11.81     11.81      0.01         0.01
  23746                       0.70      0.70      0.73      0.01         0.02
  23753                       0.01      0.01     21.27      0.01         0.01
  23761                       0.01      0.01      7.27      0.01         0.01
  23762                       6.18      6.18      7.39      0.01         0.01
  23774                       0.01      0.01      6.72      0.01         0.01
  23780                       0.31      0.31     19.07      0.01         0.01
  23784                       0.18      0.18     18.08      0.01         0.01
  23786                       1.13      1.13      3.70      0.01         0.01
  23788                       0.20      0.20      2.99      0.01         0.01
  23789                       0.01      0.01     11.88      0.01         0.01
  23792                       0.01      0.01      0.52      0.01         0.01
  23800                       0.01      0.01     12.51      0.01         0.01
  23803                       0.01      0.01      0.94      0.01         0.01
  23807                       0.69      0.69      1.06      0.01         0.01
  23811                       0.01      0.01     19.84      0.01         0.01
  23812                      19.84     19.84     21.10      0.01         0.01
  23815                       0.86      0.86      0.94      0.01         0.01
  23833                       0.01      0.01      0.01      0.19         0.01
  23834                       1.41      1.41      1.45      0.79         0.90
  23754                       0.20      0.20     19.89      0.01         0.01
  23646                       0.01      0.01      1.52      0.01         0.01
  23673                       1.41      1.41      1.52      0.28         0.01
  23629                       0.01      0.01      0.01      2.43         0.01
  C1                          0.24      0.24     20.02      0.02         0.03
  C2                         13.32     13.32     14.71     10.06        10.15
  C3                         10.61     10.61     14.71      5.92         0.01
  C4                          5.41      5.41     14.71      0.01         0.01
  C5                         14.71     14.71     21.78      0.01         0.01
  C6                         14.71     14.71     21.78      0.01         0.01
  

  Analysis begun on:  Mon Jan 01 13:51:31 2018
  Analysis ended on:  Mon Jan 01 13:52:15 2018
  Total elapsed time: 00:00:44