
  EPA STORM WATER MANAGEMENT MODEL - VERSION 5.1 (Build 5.2.0.dev1)
  --------------------------------------------------------------

  
  ERROR 209: undefined object * at line 55 of [SUBCATCHMENT] section:
  E133215#1        SCS~Type~II,~10-yr *                3.942    82       1        100      0                        

  
  ERROR 209: undefined object * at line 56 of [SUBCATCHMENT] section:
  E133214          SCS~Type~II,~10-yr *                2.12     68       1        100      0                        

  
  ERROR 209: undefined object * at line 57 of [SUBCATCHMENT] section:
  E133211#1        SCS~Type~II,~10-yr *                11.609   75       1        100      0                        

  
  ERROR 209: undefined object * at line 58 of [SUBCATCHMENT] section:
  E133160#1        SCS~Type~II,~10-yr *                7.766    76       1        100      0                        

  
  ERROR 209: undefined object * at line 59 of [SUBCATCHMENT] section:
  E133172#1        SCS~Type~II,~10-yr *                10.774   69       1        100      0                        

  
  ERROR 209: undefined object * at line 60 of [SUBCATCHMENT] section:
  E133205#1        SCS~Type~II,~10-yr *                3.602    81       1        100      0                        

  
  ERROR 209: undefined object * at line 61 of [SUBCATCHMENT] section:
  E133237#1        SCS~Type~II,~10-yr *                3.284    69       1        100      0                        

  
  ERROR 209: undefined object * at line 62 of [SUBCATCHMENT] section:
  E133151#1        SCS~Type~II,~10-yr *                2.416    77       1        100      0                        

  
  ERROR 209: undefined object * at line 63 of [SUBCATCHMENT] section:
  E133223#1        SCS~Type~II,~10-yr *                7.294    75       1        100      0                        

  
  ERROR 209: undefined object * at line 65 of [SUBCATCHMENT] section:
  E135108#1        SCS~Type~II,~10-yr *                13.921   47       1        100      0                        

  
  ERROR 209: undefined object * at line 66 of [SUBCATCHMENT] section:
  E133137#1        SCS~Type~II,~10-yr *                15.306   44       1        100      0                        

  
  ERROR 209: undefined object * at line 71 of [SUBCATCHMENT] section:
  E133148#1        SCS~Type~II,~10-yr *                5.579    21       1        100      0                        

  
  ERROR 209: undefined object * at line 72 of [SUBCATCHMENT] section:
  E133132#1        SCS~Type~II,~10-yr *                4.401    45       1        100      0                        

  
  ERROR 209: undefined object * at line 79 of [SUBCATCHMENT] section:
  E133127#1        SCS~Type~II,~10-yr *                10.64    49       1        100      0                        

  
  ERROR 209: undefined object * at line 82 of [SUBCATCHMENT] section:
  E133092#1        SCS~Type~II,~10-yr *                1.128    60       1        100      0                        

  
  ERROR 209: undefined object * at line 83 of [SUBCATCHMENT] section:
  E133086#1        SCS~Type~II,~10-yr *                8.744    40       1        100      0                        

  
  ERROR 209: undefined object * at line 84 of [SUBCATCHMENT] section:
  E133101#1        SCS~Type~II,~10-yr *                3.072    59       1        100      0                        

  
  ERROR 209: undefined object * at line 85 of [SUBCATCHMENT] section:
  E133251#1        SCS~Type~II,~10-yr *                4.006    56       1        100      0                        

  
  ERROR 209: undefined object * at line 86 of [SUBCATCHMENT] section:
  E133111#1        SCS~Type~II,~10-yr *                7.817    40       1        100      0                        

  
  ERROR 209: undefined object * at line 93 of [SUBCATCHMENT] section:
  E133114#1        SCS~Type~II,~10-yr *                5.049    34       1        100      0                        

  
  ERROR 209: undefined object * at line 94 of [SUBCATCHMENT] section:
  E134212#1        SCS~Type~II,~10-yr *                1.208    69       1        100      0                        

  
  ERROR 209: undefined object * at line 102 of [SUBCATCHMENT] section:
  D133056#1        SCS~Type~II,~10-yr *                17.92    42       1        100      0                        

  
  ERROR 209: undefined object * at line 123 of [SUBCATCHMENT] section:
  D143039#1        SCS~Type~II,~10-yr *                28.219   49       1        100      0                        

  
  ERROR 209: undefined object * at line 137 of [SUBCATCHMENT] section:
  D143020#1        SCS~Type~II,~10-yr *                14.676   50       1        100      0                        

  
  ERROR 209: undefined object * at line 162 of [SUBCATCHMENT] section:
  D143012#1        SCS~Type~II,~10-yr *                9.052    42       1        100      0                        

  
  ERROR 209: undefined object * at line 172 of [SUBCATCHMENT] section:
  D14872#1         SCS~Type~II,~10-yr *                0.74     83       1        100      0                        

  
  ERROR 209: undefined object * at line 178 of [SUBCATCHMENT] section:
  D14197#1         SCS~Type~II,~10-yr *                3.621    71       1        100      0                        

  
  ERROR 209: undefined object * at line 186 of [SUBCATCHMENT] section:
  D143001#1        SCS~Type~II,~10-yr *                19.065   63       1        100      0                        

  
  ERROR 209: undefined object * at line 187 of [SUBCATCHMENT] section:
  D14867#1         SCS~Type~II,~10-yr *                3.087    57       1        100      0                        

  
  ERROR 209: undefined object * at line 188 of [SUBCATCHMENT] section:
  F143609#1        SCS~Type~II,~10-yr *                4.973    3        1        100      0                        

  
  ERROR 209: undefined object * at line 191 of [SUBCATCHMENT] section:
  D14862#1         SCS~Type~II,~10-yr *                2.128    67       1        100      0                        

  
  ERROR 209: undefined object * at line 206 of [SUBCATCHMENT] section:
  D14235#1         SCS~Type~II,~10-yr *                2.598    48       1        100      0                        

  
  ERROR 209: undefined object * at line 211 of [SUBCATCHMENT] section:
  E14232#1         SCS~Type~II,~10-yr *                1.476    19       1        100      0                        

  
  ERROR 209: undefined object * at line 213 of [SUBCATCHMENT] section:
  F143613#1        SCS~Type~II,~10-yr *                1.821    44       1        100      0                        

  
  ERROR 209: undefined object * at line 216 of [SUBCATCHMENT] section:
  D14144#1         SCS~Type~II,~10-yr *                3.874    65       1        100      0                        

  
  ERROR 209: undefined object * at line 217 of [SUBCATCHMENT] section:
  D14137#1         SCS~Type~II,~10-yr *                3.591    81       1        100      0                        

  
  ERROR 209: undefined object * at line 225 of [SUBCATCHMENT] section:
  D14147#1         SCS~Type~II,~10-yr *                3.23     27       1        100      0                        

  
  ERROR 209: undefined object * at line 237 of [SUBCATCHMENT] section:
  D14225#1         SCS~Type~II,~10-yr *                8.239    36       1        100      0                        

  
  ERROR 209: undefined object * at line 242 of [SUBCATCHMENT] section:
  D14156#1         SCS~Type~II,~10-yr *                2.774    59       1        100      0                        

  
  ERROR 209: undefined object * at line 268 of [SUBCATCHMENT] section:
  D14125#1         SCS~Type~II,~10-yr *                6.38     13       1        100      0                        

  
  ERROR 209: undefined object * at line 270 of [SUBCATCHMENT] section:
  D14212#1         SCS~Type~II,~10-yr *                7.211    38       1        100      0                        

  
  ERROR 209: undefined object * at line 271 of [SUBCATCHMENT] section:
  D14167#1         SCS~Type~II,~10-yr *                5.065    11       1        100      0                        

  
  ERROR 209: undefined object * at line 273 of [SUBCATCHMENT] section:
  D14168#1         SCS~Type~II,~10-yr *                5.922    56       1        100      0                        

  
  ERROR 209: undefined object * at line 282 of [SUBCATCHMENT] section:
  E14311#1         SCS~Type~II,~10-yr *                0.789    43       1        100      0                        

  
  ERROR 209: undefined object * at line 288 of [SUBCATCHMENT] section:
  E14314#1         SCS~Type~II,~10-yr *                0.952    32       1        100      0                        

  
  ERROR 209: undefined object * at line 290 of [SUBCATCHMENT] section:
  E14339#1         SCS~Type~II,~10-yr *                2.51     58       1        100      0                        

  
  ERROR 209: undefined object * at line 291 of [SUBCATCHMENT] section:
  E14338#1         SCS~Type~II,~10-yr *                0.9      44       1        100      0                        

  
  ERROR 209: undefined object * at line 295 of [SUBCATCHMENT] section:
  E14356#1         SCS~Type~II,~10-yr *                0.408    94       1        100      0                        

  
  ERROR 209: undefined object * at line 296 of [SUBCATCHMENT] section:
  E14355#1         SCS~Type~II,~10-yr *                0.415    85       1        100      0                        

  
  ERROR 209: undefined object * at line 299 of [SUBCATCHMENT] section:
  E14358#1         SCS~Type~II,~10-yr *                0.701    79       1        100      0                        

  
  ERROR 209: undefined object * at line 301 of [SUBCATCHMENT] section:
  E14357#1         SCS~Type~II,~10-yr *                0.323    91       1        100      0                        

  
  ERROR 209: undefined object * at line 304 of [SUBCATCHMENT] section:
  E14349#1         SCS~Type~II,~10-yr *                1.876    86       1        100      0                        

  
  ERROR 209: undefined object * at line 306 of [SUBCATCHMENT] section:
  E14317#1         SCS~Type~II,~10-yr *                6.34     57       1        100      0                        

  
  ERROR 209: undefined object * at line 307 of [SUBCATCHMENT] section:
  E14353#1         SCS~Type~II,~10-yr *                1.811    88       1        100      0                        

  
  ERROR 209: undefined object * at line 309 of [SUBCATCHMENT] section:
  D14301#1         SCS~Type~II,~10-yr *                0.068    1        1        100      0                        

  
  ERROR 209: undefined object * at line 314 of [SUBCATCHMENT] section:
  E15360#1         SCS~Type~II,~10-yr *                0.198    69       1        100      0                        

  
  ERROR 209: undefined object * at line 315 of [SUBCATCHMENT] section:
  E15361#1         SCS~Type~II,~10-yr *                3.795    73       1        100      0                        

  
  ERROR 209: undefined object * at line 320 of [SUBCATCHMENT] section:
  D15304#1         SCS~Type~II,~10-yr *                1.421    53       1        100      0                        

  
  ERROR 209: undefined object * at line 373 of [SUBCATCHMENT] section:
  F143611.01#1     SCS~Type~II,~10-yr *                3.35     47       1        100      0                        

  
  ERROR 209: undefined object * at line 392 of [SUBCATCHMENT] section:
  F143613.1#1      SCS~Type~II,~10-yr *                1.821    44       1        100      0                        

  
  ERROR 209: undefined object * at line 407 of [SUBCATCHMENT] section:
  D14111#1         SCS~Type~II,~10-yr *                7.54     17       1        100      0                        

  
  ERROR 209: undefined object * at line 408 of [SUBCATCHMENT] section:
  D1490#1          SCS~Type~II,~10-yr *                8.223    30       1        100      0                        
