
  EPA STORM WATER MANAGEMENT MODEL - VERSION 5.1 (Build 5.1.012)
  --------------------------------------------------------------

  WARNING 04: minimum elevation drop used for Conduit 15746
  WARNING 04: minimum elevation drop used for Conduit 15799
  WARNING 04: minimum elevation drop used for Conduit 16148
  WARNING 04: minimum elevation drop used for Conduit 16155
  WARNING 04: minimum elevation drop used for Conduit 16374
  WARNING 04: minimum elevation drop used for Conduit 23627
  
  *************
  Element Count
  *************
  Number of rain gages ...... 1
  Number of subcatchments ... 354
  Number of nodes ........... 500
  Number of links ........... 489
  Number of pollutants ...... 0
  Number of land uses ....... 0
  
  
  ****************
  Raingage Summary
  ****************
                                                      Data       Recording
  Name                 Data Source                    Type       Interval 
  ------------------------------------------------------------------------
  SCS~Type~II,~10-yr   C:\Users\Jeff\Documents\research\Sadler_4thPaper\SWMM\hague_model\scs_type2_55in.csv
  
  
  ********************
  Subcatchment Summary
  ********************
  Name                       Area     Width   %Imperv    %Slope Rain Gage            Outlet              
  -----------------------------------------------------------------------------------------------------------
  D133056#1                 17.92      1.00     42.00  100.0000 SCS~Type~II,~10-yr   D133056             
  D14111#1                   7.54      1.00     17.00  100.0000 SCS~Type~II,~10-yr   D14111              
  D14125#1                   6.38      1.00     13.00  100.0000 SCS~Type~II,~10-yr   D14125              
  D14137#1                   3.59      1.00     81.00  100.0000 SCS~Type~II,~10-yr   D14137              
  D14144#1                   3.87      1.00     65.00  100.0000 SCS~Type~II,~10-yr   D14144              
  D14147#1                   3.23      1.00     27.00  100.0000 SCS~Type~II,~10-yr   D14147              
  D14156#1                   2.77      1.00     59.00  100.0000 SCS~Type~II,~10-yr   D14156              
  D14167#1                   5.07      1.00     11.00  100.0000 SCS~Type~II,~10-yr   D14167              
  D14168#1                   5.92      1.00     56.00  100.0000 SCS~Type~II,~10-yr   D14168              
  D14197#1                   3.62      1.00     71.00  100.0000 SCS~Type~II,~10-yr   D14197              
  D14212#1                   7.21      1.00     38.00  100.0000 SCS~Type~II,~10-yr   D14212              
  D14225#1                   8.24      1.00     36.00  100.0000 SCS~Type~II,~10-yr   D14225              
  D14235#1                   2.60      1.00     48.00  100.0000 SCS~Type~II,~10-yr   D14235              
  D143001#1                 19.07      1.00     63.00  100.0000 SCS~Type~II,~10-yr   D143001             
  D14301#1                   0.07      1.00      1.00  100.0000 SCS~Type~II,~10-yr   D14301              
  D143012#1                  9.05      1.00     42.00  100.0000 SCS~Type~II,~10-yr   D143012             
  D143020#1                 14.68      1.00     50.00  100.0000 SCS~Type~II,~10-yr   D143020             
  D143039#1                 28.22      1.00     49.00  100.0000 SCS~Type~II,~10-yr   D143039             
  D14862#1                   2.13      1.00     67.00  100.0000 SCS~Type~II,~10-yr   D14862              
  D14867#1                   3.09      1.00     57.00  100.0000 SCS~Type~II,~10-yr   D14867              
  D14872#1                   0.74      1.00     83.00  100.0000 SCS~Type~II,~10-yr   D14872              
  D1490#1                    8.22      1.00     30.00  100.0000 SCS~Type~II,~10-yr   D1490               
  D15304#1                   1.42      1.00     53.00  100.0000 SCS~Type~II,~10-yr   D15304              
  E13152#1                   1.27      1.00     39.00  100.0000 SCS~Type~II,~10-yr   E13152              
  E13155#1                   1.90      1.00     40.00  100.0000 SCS~Type~II,~10-yr   E13155              
  E133086#1                  8.74      1.00     40.00  100.0000 SCS~Type~II,~10-yr   E133086             
  E133092#1                  1.13      1.00     60.00  100.0000 SCS~Type~II,~10-yr   E133092             
  E133101#1                  3.07      1.00     59.00  100.0000 SCS~Type~II,~10-yr   E133101             
  E133111#1                  7.82      1.00     40.00  100.0000 SCS~Type~II,~10-yr   E133111             
  E133114#1                  5.05      1.00     34.00  100.0000 SCS~Type~II,~10-yr   E133114             
  E133127#1                 10.64      1.00     49.00  100.0000 SCS~Type~II,~10-yr   E133127             
  E133132#1                  4.40      1.00     45.00  100.0000 SCS~Type~II,~10-yr   E133132             
  E133137#1                 15.31      1.00     44.00  100.0000 SCS~Type~II,~10-yr   E133137             
  E133148#1                  5.58      1.00     21.00  100.0000 SCS~Type~II,~10-yr   E133148             
  E133151#1                  2.42      1.00     77.00  100.0000 SCS~Type~II,~10-yr   E133151             
  E133160#1                  7.77      1.00     76.00  100.0000 SCS~Type~II,~10-yr   E133160             
  E133172#1                 10.77      1.00     69.00  100.0000 SCS~Type~II,~10-yr   E133172             
  E133205#1                  3.60      1.00     81.00  100.0000 SCS~Type~II,~10-yr   E133205             
  E133211#1                 11.61      1.00     75.00  100.0000 SCS~Type~II,~10-yr   E133211             
  E133214#1                  2.12      1.00     68.00  100.0000 SCS~Type~II,~10-yr   E133214             
  E133215#1                  3.94      1.00     82.00  100.0000 SCS~Type~II,~10-yr   E133215             
  E133223#1                  7.29      1.00     75.00  100.0000 SCS~Type~II,~10-yr   E133223             
  E133237#1                  3.28      1.00     69.00  100.0000 SCS~Type~II,~10-yr   E133237             
  E133251#1                  4.01      1.00     56.00  100.0000 SCS~Type~II,~10-yr   E133251             
  E133394#1                  1.66      1.00     42.00  100.0000 SCS~Type~II,~10-yr   E133394             
  E133401#1                  2.31      1.00     76.00  100.0000 SCS~Type~II,~10-yr   E133401             
  E133464#1                  2.29      1.00     75.00  100.0000 SCS~Type~II,~10-yr   E133464             
  E133473#1                  1.30      1.00     90.00  100.0000 SCS~Type~II,~10-yr   E133473             
  E133474#1                  1.71      1.00     79.00  100.0000 SCS~Type~II,~10-yr   E133474             
  E133478#1                  1.19      1.00     80.00  100.0000 SCS~Type~II,~10-yr   E133478             
  E133481#1                  4.44      1.00     55.00  100.0000 SCS~Type~II,~10-yr   E133481             
  E133483#1                  3.68      1.00     77.00  100.0000 SCS~Type~II,~10-yr   E133483             
  E134007#1                  1.55      1.00     35.00  100.0000 SCS~Type~II,~10-yr   E134007             
  E134010#1                  0.52      1.00     41.00  100.0000 SCS~Type~II,~10-yr   E134010             
  E134011#1                  3.17      1.00     49.00  100.0000 SCS~Type~II,~10-yr   E134011             
  E134203#1                  2.58      1.00     85.00  100.0000 SCS~Type~II,~10-yr   E134203             
  E134212#1                  1.21      1.00     69.00  100.0000 SCS~Type~II,~10-yr   E134212             
  E134213#1                  0.40      1.00     93.00  100.0000 SCS~Type~II,~10-yr   E134213             
  E134217#1                  1.54      1.00     77.00  100.0000 SCS~Type~II,~10-yr   E134217             
  E134219#1                  2.39      1.00     71.00  100.0000 SCS~Type~II,~10-yr   E134219             
  E134222#1                  2.43      1.00     16.00  100.0000 SCS~Type~II,~10-yr   E134222             
  E134224.2#1                2.26      1.00     14.00  100.0000 SCS~Type~II,~10-yr   E134224.2           
  E134250#1                  4.14      1.00     46.00  100.0000 SCS~Type~II,~10-yr   E134250             
  E134255#1                  2.71      1.00     44.00  100.0000 SCS~Type~II,~10-yr   E134255             
  E134257#1                  2.50      1.00     42.00  100.0000 SCS~Type~II,~10-yr   E134257             
  E134262#1                  0.22      1.00     20.00  100.0000 SCS~Type~II,~10-yr   E134262             
  E134263#1                  3.04      1.00     17.00  100.0000 SCS~Type~II,~10-yr   E134263             
  E134266#1                  0.80      1.00      9.00  100.0000 SCS~Type~II,~10-yr   E134266             
  E134267#1                  1.30      1.00     24.00  100.0000 SCS~Type~II,~10-yr   E134267             
  E134278#1                  1.97      1.00     53.00  100.0000 SCS~Type~II,~10-yr   E134278             
  E134288#1                  1.31      1.00     49.00  100.0000 SCS~Type~II,~10-yr   E134288             
  E135108#1                 13.92      1.00     47.00  100.0000 SCS~Type~II,~10-yr   E135108             
  E1364#1                    0.58      1.00     41.00  100.0000 SCS~Type~II,~10-yr   E1364               
  E1366#1                    1.61      1.00     33.00  100.0000 SCS~Type~II,~10-yr   E1366               
  E1369#1                    1.70      1.00     34.00  100.0000 SCS~Type~II,~10-yr   E1369               
  E1371#1                   11.19      1.00     44.00  100.0000 SCS~Type~II,~10-yr   E1371               
  E1376#1                    6.48      1.00     72.00  100.0000 SCS~Type~II,~10-yr   E1376               
  E14105#1                   0.28      1.00     41.00  100.0000 SCS~Type~II,~10-yr   E14105              
  E14106#1                   0.57      1.00     54.00  100.0000 SCS~Type~II,~10-yr   E14106              
  E14108#1                   0.26      1.00     62.00  100.0000 SCS~Type~II,~10-yr   E14108              
  E14109#1                   1.70      1.00     52.00  100.0000 SCS~Type~II,~10-yr   E14109              
  E14112#1                   1.42      1.00     55.00  100.0000 SCS~Type~II,~10-yr   E14112              
  E14116#1                   1.23      1.00     45.00  100.0000 SCS~Type~II,~10-yr   E14116              
  E14120#1                   1.75      1.00     45.00  100.0000 SCS~Type~II,~10-yr   E14120              
  E14123#1                   1.58      1.00     60.00  100.0000 SCS~Type~II,~10-yr   E14123              
  E14124#1                   1.64      1.00     52.00  100.0000 SCS~Type~II,~10-yr   E14124              
  E14124.01#1                1.23      1.00     50.00  100.0000 SCS~Type~II,~10-yr   E14124.01           
  E14128#1                   0.87      1.00     53.00  100.0000 SCS~Type~II,~10-yr   E14128              
  E1416#1                    1.53      1.00     33.00  100.0000 SCS~Type~II,~10-yr   E1416               
  E14176#1                   0.37      1.00     39.00  100.0000 SCS~Type~II,~10-yr   E14176              
  E14179#1                   1.14      1.00     47.00  100.0000 SCS~Type~II,~10-yr   E14179              
  E14181#1                   1.55      1.00     30.00  100.0000 SCS~Type~II,~10-yr   E14181              
  E14182#1                   0.29      1.00     48.00  100.0000 SCS~Type~II,~10-yr   E14182              
  E14183#1                   0.91      1.00     44.00  100.0000 SCS~Type~II,~10-yr   E14183              
  E142#1                     1.27      1.00     52.00  100.0000 SCS~Type~II,~10-yr   E142                
  E1422#1                    2.02      1.00     40.00  100.0000 SCS~Type~II,~10-yr   E1422               
  E14232#1                   1.48      1.00     19.00  100.0000 SCS~Type~II,~10-yr   E14232              
  E1425#1                    2.61      1.00     56.00  100.0000 SCS~Type~II,~10-yr   E1425               
  E1428#1                    2.50      1.00     55.00  100.0000 SCS~Type~II,~10-yr   E1428               
  E14311#1                   0.79      1.00     43.00  100.0000 SCS~Type~II,~10-yr   E14311              
  E14314#1                   0.95      1.00     32.00  100.0000 SCS~Type~II,~10-yr   E14314              
  E14317#1                   6.34      1.00     57.00  100.0000 SCS~Type~II,~10-yr   E14317              
  E143268#1                  1.97      1.00     23.00  100.0000 SCS~Type~II,~10-yr   E143268             
  E143270#1                  0.37      1.00     59.00  100.0000 SCS~Type~II,~10-yr   E143270             
  E143277#1                  0.33      1.00     40.00  100.0000 SCS~Type~II,~10-yr   E143277             
  E143278#1                  1.18      1.00     54.00  100.0000 SCS~Type~II,~10-yr   E143278             
  E143280#1                  2.74      1.00     73.00  100.0000 SCS~Type~II,~10-yr   E143280             
  E143282#1                  0.35      1.00     57.00  100.0000 SCS~Type~II,~10-yr   E143282             
  E143284#1                  1.08      1.00     43.00  100.0000 SCS~Type~II,~10-yr   E143284             
  E143287#1                  0.28      1.00     50.00  100.0000 SCS~Type~II,~10-yr   E143287             
  E143288#1                  2.35      1.00     38.00  100.0000 SCS~Type~II,~10-yr   E143288             
  E143289#1                  1.17      1.00     44.00  100.0000 SCS~Type~II,~10-yr   E143289             
  E143300#1                  2.65      1.00     42.00  100.0000 SCS~Type~II,~10-yr   E143300             
  E143304#1                  0.69      1.00     44.00  100.0000 SCS~Type~II,~10-yr   E143304             
  E143314#1                  2.33      1.00     48.00  100.0000 SCS~Type~II,~10-yr   E143314             
  E143315#1                  3.35      1.00     43.00  100.0000 SCS~Type~II,~10-yr   E143315             
  E143319#1                  1.45      1.00     57.00  100.0000 SCS~Type~II,~10-yr   E143319             
  E143321#1                  2.01      1.00     53.00  100.0000 SCS~Type~II,~10-yr   E143321             
  E143327#1                  1.74      1.00     77.00  100.0000 SCS~Type~II,~10-yr   E143327             
  E143329#1                  2.35      1.00     84.00  100.0000 SCS~Type~II,~10-yr   E143329             
  E143335#1                  0.90      1.00     82.00  100.0000 SCS~Type~II,~10-yr   E143335             
  E143339#1                  2.27      1.00     71.00  100.0000 SCS~Type~II,~10-yr   E143339             
  E143340#1                  0.27      1.00     84.00  100.0000 SCS~Type~II,~10-yr   E143340             
  E143352#1                  0.64      1.00     92.00  100.0000 SCS~Type~II,~10-yr   E143352             
  E143356#1                  1.43      1.00     86.00  100.0000 SCS~Type~II,~10-yr   E143356             
  E143358#1                  1.32      1.00     79.00  100.0000 SCS~Type~II,~10-yr   E143358             
  E143361#1                  1.50      1.00     50.00  100.0000 SCS~Type~II,~10-yr   E143361             
  E143366#1                  0.69      1.00     14.00  100.0000 SCS~Type~II,~10-yr   E143366             
  E143369#1                  2.06      1.00     43.00  100.0000 SCS~Type~II,~10-yr   E143369             
  E143373#1                  0.54      1.00     90.00  100.0000 SCS~Type~II,~10-yr   E143373             
  E14338#1                   0.90      1.00     44.00  100.0000 SCS~Type~II,~10-yr   E14338              
  E14339#1                   2.51      1.00     58.00  100.0000 SCS~Type~II,~10-yr   E14339              
  E143393#1                 10.89      1.00     18.00  100.0000 SCS~Type~II,~10-yr   E143393             
  E14349#1                   1.88      1.00     86.00  100.0000 SCS~Type~II,~10-yr   E14349              
  E1435#1                    1.14      1.00     40.00  100.0000 SCS~Type~II,~10-yr   E1435               
  E14353#1                   1.81      1.00     88.00  100.0000 SCS~Type~II,~10-yr   E14353              
  E14355#1                   0.41      1.00     85.00  100.0000 SCS~Type~II,~10-yr   E14355              
  E14356#1                   0.41      1.00     94.00  100.0000 SCS~Type~II,~10-yr   E14356              
  E14357#1                   0.32      1.00     91.00  100.0000 SCS~Type~II,~10-yr   E14357              
  E14358#1                   0.70      1.00     79.00  100.0000 SCS~Type~II,~10-yr   E14358              
  E143703#1                  1.33      1.00     55.00  100.0000 SCS~Type~II,~10-yr   E143703             
  E143709#1                  1.05      1.00     42.00  100.0000 SCS~Type~II,~10-yr   E143709             
  E143713#1                  1.70      1.00     45.00  100.0000 SCS~Type~II,~10-yr   E143713             
  E143717#1                  0.51      1.00     73.00  100.0000 SCS~Type~II,~10-yr   E143717             
  E143723#1                  4.96      1.00     80.00  100.0000 SCS~Type~II,~10-yr   E143723             
  E143736#1                  1.26      1.00     85.00  100.0000 SCS~Type~II,~10-yr   E143736             
  E143741#1                  1.17      1.00     77.00  100.0000 SCS~Type~II,~10-yr   E143741             
  E143746#1                  4.22      1.00     75.00  100.0000 SCS~Type~II,~10-yr   E143746             
  E143750#1                  1.16      1.00     80.00  100.0000 SCS~Type~II,~10-yr   E143750             
  E143757#1                  0.22      1.00     87.00  100.0000 SCS~Type~II,~10-yr   E143757             
  E143759#1                  0.23      1.00     92.00  100.0000 SCS~Type~II,~10-yr   E143759             
  E143760#1                  1.04      1.00     91.00  100.0000 SCS~Type~II,~10-yr   E143760             
  E143761.1#1                0.71      1.00     83.00  100.0000 SCS~Type~II,~10-yr   E143761.1           
  E143794#1                  1.97      1.00     79.00  100.0000 SCS~Type~II,~10-yr   E143794             
  E143798#1                  1.62      1.00     87.00  100.0000 SCS~Type~II,~10-yr   E143798             
  E143801#1                  2.62      1.00     83.00  100.0000 SCS~Type~II,~10-yr   E143801             
  E143811#1                  1.13      1.00     87.00  100.0000 SCS~Type~II,~10-yr   E143811             
  E143823#1                  0.94      1.00     83.00  100.0000 SCS~Type~II,~10-yr   E143823             
  E143823.5#1                1.27      1.00     82.00  100.0000 SCS~Type~II,~10-yr   E143823.5           
  E143829#1                  1.15      1.00     91.00  100.0000 SCS~Type~II,~10-yr   E143829             
  E143835#1                  5.25      1.00     83.00  100.0000 SCS~Type~II,~10-yr   E143835             
  E143840#1                  5.33      1.00     68.00  100.0000 SCS~Type~II,~10-yr   E143840             
  E143849#1                  0.88      1.00     78.00  100.0000 SCS~Type~II,~10-yr   E143849             
  E143853#1                  0.42      1.00     70.00  100.0000 SCS~Type~II,~10-yr   E143853             
  E143857#1                  0.60      1.00     78.00  100.0000 SCS~Type~II,~10-yr   E143857             
  E143860#1                  0.89      1.00     77.00  100.0000 SCS~Type~II,~10-yr   E143860             
  E143872#1                  2.96      1.00     86.00  100.0000 SCS~Type~II,~10-yr   E143872             
  E143880.01#1               0.99      1.00     52.00  100.0000 SCS~Type~II,~10-yr   E143880.01          
  E143883#1                  3.68      1.00     45.00  100.0000 SCS~Type~II,~10-yr   E143883             
  E143884#1                  1.66      1.00     36.00  100.0000 SCS~Type~II,~10-yr   E143884             
  E143884.01#1               0.09      1.00     46.00  100.0000 SCS~Type~II,~10-yr   E143884.01          
  E143885#1                  0.31      1.00     60.00  100.0000 SCS~Type~II,~10-yr   E143885             
  E143888#1                  3.52      1.00     37.00  100.0000 SCS~Type~II,~10-yr   E143888             
  E143964#1                  0.16      1.00     33.00  100.0000 SCS~Type~II,~10-yr   E143964             
  E143972#1                  0.37      1.00     10.00  100.0000 SCS~Type~II,~10-yr   E143972             
  E143973#1                  0.71      1.00     35.00  100.0000 SCS~Type~II,~10-yr   E143973             
  E143977#1                  1.81      1.00     58.00  100.0000 SCS~Type~II,~10-yr   E143977             
  E143988#1                  0.39      1.00     68.00  100.0000 SCS~Type~II,~10-yr   E143988             
  E143992#1                  0.59      1.00     69.00  100.0000 SCS~Type~II,~10-yr   E143992             
  E143993#1                  2.83      1.00     72.00  100.0000 SCS~Type~II,~10-yr   E143993             
  E143994#1                  2.65      1.00     81.00  100.0000 SCS~Type~II,~10-yr   E143994             
  E143999#1                  2.05      1.00     72.00  100.0000 SCS~Type~II,~10-yr   E143999             
  E144004#1                  0.86      1.00     78.00  100.0000 SCS~Type~II,~10-yr   E144004             
  E144011#1                  0.34      1.00     85.00  100.0000 SCS~Type~II,~10-yr   E144011             
  E144014#1                  0.40      1.00     76.00  100.0000 SCS~Type~II,~10-yr   E144014             
  E144018#1                  5.50      1.00     66.00  100.0000 SCS~Type~II,~10-yr   E144018             
  E144026#1                  4.88      1.00     49.00  100.0000 SCS~Type~II,~10-yr   E144026             
  E144027#1                  1.10      1.00     31.00  100.0000 SCS~Type~II,~10-yr   E144027             
  E144034#1                  0.13      1.00     87.00  100.0000 SCS~Type~II,~10-yr   E144034             
  E144050#1                  0.63      1.00     63.00  100.0000 SCS~Type~II,~10-yr   E144050             
  E1442#1                    0.96      1.00      9.00  100.0000 SCS~Type~II,~10-yr   E1442               
  E144272#1                  4.22      1.00     81.00  100.0000 SCS~Type~II,~10-yr   E144272             
  E1444#1                    1.32      1.00     32.00  100.0000 SCS~Type~II,~10-yr   E1444               
  E1446#1                    4.90      1.00     47.00  100.0000 SCS~Type~II,~10-yr   E1446               
  E1448#1                    1.54      1.00     24.00  100.0000 SCS~Type~II,~10-yr   E1448               
  E1450#1                    5.39      1.00     50.00  100.0000 SCS~Type~II,~10-yr   E1450               
  E145010#1                  0.17      1.00     65.00  100.0000 SCS~Type~II,~10-yr   E145010             
  E145011#1                  0.20      1.00     69.00  100.0000 SCS~Type~II,~10-yr   E145011             
  E145052#1                  0.79      1.00     76.00  100.0000 SCS~Type~II,~10-yr   E145052             
  E145063#1                  1.15      1.00     48.00  100.0000 SCS~Type~II,~10-yr   E145063             
  E145066#1                  1.50      1.00     75.00  100.0000 SCS~Type~II,~10-yr   E145066             
  E145076#1                  0.30      1.00     83.00  100.0000 SCS~Type~II,~10-yr   E145076             
  E145077#1                  0.96      1.00     76.00  100.0000 SCS~Type~II,~10-yr   E145077             
  E145201#1                  0.13      1.00     40.00  100.0000 SCS~Type~II,~10-yr   E145201             
  E145202#1                  0.54      1.00     52.00  100.0000 SCS~Type~II,~10-yr   E145202             
  E145205#1                  0.63      1.00     56.00  100.0000 SCS~Type~II,~10-yr   E145205             
  E145206#1                  0.51      1.00     33.00  100.0000 SCS~Type~II,~10-yr   E145206             
  E145300#1                  5.23      1.00     69.00  100.0000 SCS~Type~II,~10-yr   E145300             
  E1455#1                    1.29      1.00     25.00  100.0000 SCS~Type~II,~10-yr   E1455               
  E1456#1                    1.48      1.00     45.00  100.0000 SCS~Type~II,~10-yr   E1456               
  E1458#1                    1.44      1.00     45.00  100.0000 SCS~Type~II,~10-yr   E1458               
  E1459#1                    3.14      1.00     40.00  100.0000 SCS~Type~II,~10-yr   E1459               
  E146002#1                  0.29      1.00     68.00  100.0000 SCS~Type~II,~10-yr   E146002             
  E146003#1                  1.35      1.00     58.00  100.0000 SCS~Type~II,~10-yr   E146003             
  E147003.3#1                0.92      1.00     71.00  100.0000 SCS~Type~II,~10-yr   E147003.3           
  E147004.01#1               2.03      1.00     87.00  100.0000 SCS~Type~II,~10-yr   E147004.01          
  E147008#1                  1.51      1.00     67.00  100.0000 SCS~Type~II,~10-yr   E147008             
  E149#1                     1.31      1.00     48.00  100.0000 SCS~Type~II,~10-yr   E149                
  E15360#1                   0.20      1.00     69.00  100.0000 SCS~Type~II,~10-yr   E15360              
  E15361#1                   3.79      1.00     73.00  100.0000 SCS~Type~II,~10-yr   E15361              
  E153770#1                  1.51      1.00     79.00  100.0000 SCS~Type~II,~10-yr   E153770             
  E153771.02#1               0.69      1.00     73.00  100.0000 SCS~Type~II,~10-yr   E153771.02          
  E153868#1                  2.60      1.00     81.00  100.0000 SCS~Type~II,~10-yr   E153868             
  E153874#1                  0.42      1.00     80.00  100.0000 SCS~Type~II,~10-yr   E153874             
  E153875#1                  0.31      1.00     81.00  100.0000 SCS~Type~II,~10-yr   E153875             
  F13250#1                   0.26      1.00     69.00  100.0000 SCS~Type~II,~10-yr   F13250              
  F13251#1                   0.58      1.00     65.00  100.0000 SCS~Type~II,~10-yr   F13251              
  F13252#1                   1.23      1.00     49.00  100.0000 SCS~Type~II,~10-yr   F13252              
  F13255#1                   5.52      1.00     43.00  100.0000 SCS~Type~II,~10-yr   F13255              
  F13259#1                   0.45      1.00     72.00  100.0000 SCS~Type~II,~10-yr   F13259              
  F13260#1                   1.61      1.00     66.00  100.0000 SCS~Type~II,~10-yr   F13260              
  F13264#1                   1.43      1.00     46.00  100.0000 SCS~Type~II,~10-yr   F13264              
  F13269#1                   1.80      1.00     48.00  100.0000 SCS~Type~II,~10-yr   F13269              
  F13277#1                   0.53      1.00     66.00  100.0000 SCS~Type~II,~10-yr   F13277              
  F13281#1                   2.81      1.00     67.00  100.0000 SCS~Type~II,~10-yr   F13281              
  F13289#1                   2.63      1.00     89.00  100.0000 SCS~Type~II,~10-yr   F13289              
  F13290#1                   0.14      1.00     68.00  100.0000 SCS~Type~II,~10-yr   F13290              
  F13291#1                   1.07      1.00     75.00  100.0000 SCS~Type~II,~10-yr   F13291              
  F13292#1                   1.00      1.00     90.00  100.0000 SCS~Type~II,~10-yr   F13292              
  F13295#1                   0.37      1.00     88.00  100.0000 SCS~Type~II,~10-yr   F13295              
  F133438#1                  6.96      1.00     71.00  100.0000 SCS~Type~II,~10-yr   F133438             
  F133448#1                  0.58      1.00     79.00  100.0000 SCS~Type~II,~10-yr   F133448             
  F133451#1                  1.84      1.00     67.00  100.0000 SCS~Type~II,~10-yr   F133451             
  F133452#1                  7.83      1.00     73.00  100.0000 SCS~Type~II,~10-yr   F133452             
  F133459#1                  2.76      1.00     84.00  100.0000 SCS~Type~II,~10-yr   F133459             
  F133462#1                  2.34      1.00     92.00  100.0000 SCS~Type~II,~10-yr   F133462             
  F133463#1                  3.35      1.00     80.00  100.0000 SCS~Type~II,~10-yr   F133463             
  F133464#1                  5.17      1.00     80.00  100.0000 SCS~Type~II,~10-yr   F133464             
  F133469#1                  3.76      1.00     78.00  100.0000 SCS~Type~II,~10-yr   F133469             
  F134101#1                  0.98      1.00     84.00  100.0000 SCS~Type~II,~10-yr   F134101             
  F134104#1                  2.61      1.00     70.00  100.0000 SCS~Type~II,~10-yr   F134104             
  F134118#1                  7.38      1.00     29.00  100.0000 SCS~Type~II,~10-yr   F134118             
  F134126#1                  5.00      1.00     53.00  100.0000 SCS~Type~II,~10-yr   F134126             
  F134147#1                  0.89      1.00     35.00  100.0000 SCS~Type~II,~10-yr   F134147             
  F134200#1                  0.73      1.00     92.00  100.0000 SCS~Type~II,~10-yr   F134200             
  F134230#1                  4.03      1.00     83.00  100.0000 SCS~Type~II,~10-yr   F134230             
  F134231#1                  3.65      1.00     83.00  100.0000 SCS~Type~II,~10-yr   F134231             
  F135999#1                  4.18      1.00      8.00  100.0000 SCS~Type~II,~10-yr   F135999             
  F139004#1                  1.94      1.00     49.00  100.0000 SCS~Type~II,~10-yr   F139004             
  F139015#1                  2.01      1.00     21.00  100.0000 SCS~Type~II,~10-yr   F139015             
  F139025#1                  0.37      1.00     53.00  100.0000 SCS~Type~II,~10-yr   F139025             
  F139026#1                  0.63      1.00     73.00  100.0000 SCS~Type~II,~10-yr   F139026             
  F139028#1                  0.42      1.00     84.00  100.0000 SCS~Type~II,~10-yr   F139028             
  F139029#1                  0.82      1.00     65.00  100.0000 SCS~Type~II,~10-yr   F139029             
  F139031#1                  1.49      1.00     76.00  100.0000 SCS~Type~II,~10-yr   F139031             
  F143510#1                  2.99      1.00     67.00  100.0000 SCS~Type~II,~10-yr   F143510             
  F143512#1                  1.54      1.00     46.00  100.0000 SCS~Type~II,~10-yr   F143512             
  F143513#1                  7.53      1.00     15.00  100.0000 SCS~Type~II,~10-yr   F143513             
  F143520#1                  0.83      1.00     17.00  100.0000 SCS~Type~II,~10-yr   F143520             
  F143529#1                  3.17      1.00     10.00  100.0000 SCS~Type~II,~10-yr   F143529             
  F143537#1                  0.37      1.00     21.00  100.0000 SCS~Type~II,~10-yr   F143537             
  F143539#1                  0.34      1.00     14.00  100.0000 SCS~Type~II,~10-yr   F143539             
  F143543#1                  1.26      1.00     16.00  100.0000 SCS~Type~II,~10-yr   F143543             
  F143545#1                  2.64      1.00      5.00  100.0000 SCS~Type~II,~10-yr   F143545             
  F143548#1                  0.57      1.00     22.00  100.0000 SCS~Type~II,~10-yr   F143548             
  F143560#1                  5.72      1.00      7.00  100.0000 SCS~Type~II,~10-yr   F143560             
  F143575#1                  0.82      1.00      4.00  100.0000 SCS~Type~II,~10-yr   F143575             
  F143587#1                  1.18      1.00     10.00  100.0000 SCS~Type~II,~10-yr   F143587             
  F143590#1                  1.23      1.00     13.00  100.0000 SCS~Type~II,~10-yr   F143590             
  F143603#1                  0.81      1.00      8.00  100.0000 SCS~Type~II,~10-yr   F143603             
  F143609#1                  4.97      1.00      3.00  100.0000 SCS~Type~II,~10-yr   F143609             
  F143611.01#1               3.35      1.00     47.00  100.0000 SCS~Type~II,~10-yr   F143611.01          
  F143613#1                  1.82      1.00     44.00  100.0000 SCS~Type~II,~10-yr   F143613             
  F143613.1#1                1.82      1.00     44.00  100.0000 SCS~Type~II,~10-yr   F143613.1           
  F143617#1                  2.35      1.00     14.00  100.0000 SCS~Type~II,~10-yr   F143617             
  F143622#1                  1.14      1.00     10.00  100.0000 SCS~Type~II,~10-yr   F143622             
  F143636#1                  5.95      1.00     10.00  100.0000 SCS~Type~II,~10-yr   F143636             
  F143637#1                  0.41      1.00     20.00  100.0000 SCS~Type~II,~10-yr   F143637             
  F143640#1                  1.32      1.00     60.00  100.0000 SCS~Type~II,~10-yr   F143640             
  F143643#1                  1.79      1.00     14.00  100.0000 SCS~Type~II,~10-yr   F143643             
  F143648#1                  2.35      1.00     41.00  100.0000 SCS~Type~II,~10-yr   F143648             
  F143648.1#1                1.74      1.00     39.00  100.0000 SCS~Type~II,~10-yr   F143648.1           
  F143649#1                  0.35      1.00     61.00  100.0000 SCS~Type~II,~10-yr   F143649             
  F143651#1                  0.27      1.00     72.00  100.0000 SCS~Type~II,~10-yr   F143651             
  F143654.1#1                0.66      1.00      3.00  100.0000 SCS~Type~II,~10-yr   F143654.1           
  F143661#1                  3.37      1.00     50.00  100.0000 SCS~Type~II,~10-yr   F143661             
  F143662#1                  1.68      1.00     54.00  100.0000 SCS~Type~II,~10-yr   F143662             
  F143665#1                  3.30      1.00     33.00  100.0000 SCS~Type~II,~10-yr   F143665             
  F143671#1                  0.92      1.00     17.00  100.0000 SCS~Type~II,~10-yr   F143671             
  F143674#1                  4.54      1.00     17.00  100.0000 SCS~Type~II,~10-yr   F143674             
  F143676#1                  1.10      1.00     26.00  100.0000 SCS~Type~II,~10-yr   F143676             
  F143682.01#1               5.77      1.00     21.00  100.0000 SCS~Type~II,~10-yr   F143682.01          
  F143692#1                  2.08      1.00     64.00  100.0000 SCS~Type~II,~10-yr   F143692             
  F143693#1                  4.76      1.00     56.00  100.0000 SCS~Type~II,~10-yr   F143693             
  F143701#1                  0.39      1.00     65.00  100.0000 SCS~Type~II,~10-yr   F143701             
  F143702#1                  1.06      1.00     51.00  100.0000 SCS~Type~II,~10-yr   F143702             
  F143705#1                  0.34      1.00     55.00  100.0000 SCS~Type~II,~10-yr   F143705             
  F143707#1                  0.59      1.00     59.00  100.0000 SCS~Type~II,~10-yr   F143707             
  F143708#1                  2.68      1.00     34.00  100.0000 SCS~Type~II,~10-yr   F143708             
  F143892#1                  0.98      1.00     51.00  100.0000 SCS~Type~II,~10-yr   F143892             
  F143899#1                  1.56      1.00     54.00  100.0000 SCS~Type~II,~10-yr   F143899             
  F143902#1                  1.40      1.00     47.00  100.0000 SCS~Type~II,~10-yr   F143902             
  F143905#1                  1.47      1.00     33.00  100.0000 SCS~Type~II,~10-yr   F143905             
  F143906#1                  0.31      1.00     41.00  100.0000 SCS~Type~II,~10-yr   F143906             
  F143909#1                  0.77      1.00     33.00  100.0000 SCS~Type~II,~10-yr   F143909             
  F143911#1                  1.11      1.00     45.00  100.0000 SCS~Type~II,~10-yr   F143911             
  F143913#1                  0.67      1.00     20.00  100.0000 SCS~Type~II,~10-yr   F143913             
  F143914#1                  3.78      1.00     30.00  100.0000 SCS~Type~II,~10-yr   F143914             
  F143921#1                  1.44      1.00     43.00  100.0000 SCS~Type~II,~10-yr   F143921             
  F143922#1                  6.31      1.00     41.00  100.0000 SCS~Type~II,~10-yr   F143922             
  F143928#1                  3.13      1.00     47.00  100.0000 SCS~Type~II,~10-yr   F143928             
  F143930#1                  1.95      1.00     40.00  100.0000 SCS~Type~II,~10-yr   F143930             
  F143941#1                  3.05      1.00     56.00  100.0000 SCS~Type~II,~10-yr   F143941             
  F143943#1                  2.70      1.00     36.00  100.0000 SCS~Type~II,~10-yr   F143943             
  F143947#1                  0.70      1.00     35.00  100.0000 SCS~Type~II,~10-yr   F143947             
  F143949#1                  1.31      1.00     78.00  100.0000 SCS~Type~II,~10-yr   F143949             
  F143952#1                  1.01      1.00     58.00  100.0000 SCS~Type~II,~10-yr   F143952             
  F143953#1                  1.45      1.00     60.00  100.0000 SCS~Type~II,~10-yr   F143953             
  F143958#1                  0.86      1.00     57.00  100.0000 SCS~Type~II,~10-yr   F143958             
  F144001#1                  4.54      1.00     52.00  100.0000 SCS~Type~II,~10-yr   F144001             
  F145017#1                  2.17      1.00     70.00  100.0000 SCS~Type~II,~10-yr   F145017             
  F14502#1                   0.45      1.00     38.00  100.0000 SCS~Type~II,~10-yr   F14502              
  F14503#1                   0.52      1.00     27.00  100.0000 SCS~Type~II,~10-yr   F14503              
  F14504#1                   0.69      1.00     21.00  100.0000 SCS~Type~II,~10-yr   F14504              
  F146005#1                  1.27      1.00     15.00  100.0000 SCS~Type~II,~10-yr   F146005             
  F146006#1                  0.76      1.00      7.00  100.0000 SCS~Type~II,~10-yr   F146006             
  F14601#1                   0.15      1.00     11.00  100.0000 SCS~Type~II,~10-yr   F14601              
  F14602#1                   0.47      1.00      5.00  100.0000 SCS~Type~II,~10-yr   F14602              
  F14604#1                   1.06      1.00     16.00  100.0000 SCS~Type~II,~10-yr   F14604              
  F147005#1                  4.57      1.00     52.00  100.0000 SCS~Type~II,~10-yr   F147005             
  F147020#1                  2.04      1.00     65.00  100.0000 SCS~Type~II,~10-yr   F147020             
  F147143#1                  0.78      1.00     62.00  100.0000 SCS~Type~II,~10-yr   F147143             
  F147147#1                  0.22      1.00     52.00  100.0000 SCS~Type~II,~10-yr   F147147             
  F147148#1                  0.05      1.00     49.00  100.0000 SCS~Type~II,~10-yr   F147148             
  F147148.1#1                0.79      1.00     66.00  100.0000 SCS~Type~II,~10-yr   F147148.1           
  F149001.2#1                3.51      1.00     36.00  100.0000 SCS~Type~II,~10-yr   F149001.2           
  F149011#1                  1.08      1.00     69.00  100.0000 SCS~Type~II,~10-yr   F149011             
  F149012#1                  0.81      1.00     29.00  100.0000 SCS~Type~II,~10-yr   F149012             
  F149015#1                  0.58      1.00     39.00  100.0000 SCS~Type~II,~10-yr   F149015             
  F149025#1                  0.06      1.00     39.00  100.0000 SCS~Type~II,~10-yr   F149025             
  F153938#1                  2.10      1.00     77.00  100.0000 SCS~Type~II,~10-yr   F153938             
  F153955#1                  1.64      1.00     77.00  100.0000 SCS~Type~II,~10-yr   F153955             
  F153956#1                  3.68      1.00     74.00  100.0000 SCS~Type~II,~10-yr   F153956             
  F153959#1                  0.83      1.00     86.00  100.0000 SCS~Type~II,~10-yr   F153959             
  
  
  ************
  Node Summary
  ************
                                           Invert      Max.    Ponded    External
  Name                 Type                 Elev.     Depth      Area    Inflow  
  -------------------------------------------------------------------------------
  D133056              JUNCTION              1.23      6.04       0.0
  D14111               JUNCTION              1.46      4.80       0.0
  D14125               JUNCTION             -2.08      8.72       0.0
  D14137               JUNCTION              4.61      6.50       0.0
  D14144               JUNCTION              2.87      7.06       0.0
  D14147               JUNCTION              0.23      6.00       0.0
  D14154               JUNCTION              1.90      2.55       0.0
  D14156               JUNCTION              3.55      4.78       0.0
  D14167               JUNCTION              4.78      4.82       0.0
  D14168               JUNCTION              5.03      5.07       0.0
  D14170               JUNCTION              4.74      3.53       0.0
  D14197               JUNCTION              3.47      5.00       0.0
  D14212               JUNCTION              0.98      3.77       0.0
  D14216               JUNCTION              1.26      4.19       0.0
  D14225               JUNCTION              2.38      4.73       0.0
  D14235               JUNCTION              5.77      2.98       0.0
  D143001              JUNCTION             -3.13      9.05       0.0
  D14301               JUNCTION             -3.76     11.30       0.0
  D143012              JUNCTION             -2.61      8.11       0.0
  D143020              JUNCTION             -2.33      8.10       0.0
  D143039              JUNCTION              0.14      6.40       0.0
  D14862               JUNCTION             -2.94      8.55       0.0
  D14867               JUNCTION              2.74      5.00       0.0
  D14872               JUNCTION              4.42      3.78       0.0
  D1490                JUNCTION              0.00      3.56       0.0
  D15302               JUNCTION             -3.51     10.31       0.0
  D15304               JUNCTION             -3.02      7.26       0.0
  E13151               JUNCTION              3.13      4.86       0.0
  E13152               JUNCTION              3.03      4.26       0.0
  E13155               JUNCTION              4.48      2.36       0.0
  E13159               JUNCTION              0.61      7.64       0.0
  E133086              JUNCTION              2.60      6.25       0.0
  E133092              JUNCTION              3.76      6.87       0.0
  E133100              JUNCTION              4.76      4.74       0.0
  E133101              JUNCTION              5.95      3.95       0.0
  E133103              JUNCTION              7.43      3.84       0.0
  E133111              JUNCTION              5.68      4.47       0.0
  E133114              JUNCTION              5.87      4.32       0.0
  E133127              JUNCTION              2.88      5.86       0.0
  E133132              JUNCTION              6.85      3.50       0.0
  E133137              JUNCTION              4.40      5.37       0.0
  E133148              JUNCTION              6.52      7.24       0.0
  E133151              JUNCTION              5.87      7.07       0.0
  E133160              JUNCTION              6.50      5.87       0.0
  E133172              JUNCTION              7.39      5.11       0.0
  E133205              JUNCTION              5.84      4.69       0.0
  E133211              JUNCTION              6.50      5.03       0.0
  E133214              JUNCTION              6.67      5.37       0.0
  E133215              JUNCTION              7.90      4.14       0.0
  E133223              JUNCTION              5.05      5.25       0.0
  E133237              JUNCTION              7.01      5.50       0.0
  E133251              JUNCTION              4.34      5.88       0.0
  E133252              JUNCTION              5.90      3.66       0.0
  E133394              JUNCTION             -0.89      5.37       0.0
  E133401              JUNCTION             -0.75      5.30       0.0
  E133464              JUNCTION              3.93      4.62       0.0
  E133473              JUNCTION              4.18      5.32       0.0
  E133474              JUNCTION              5.12      5.14       0.0
  E133478              JUNCTION              6.28      2.58       0.0
  E133481              JUNCTION              6.50      2.24       0.0
  E133483              JUNCTION              5.38      4.54       0.0
  E134007              JUNCTION              1.21      7.49       0.0
  E134010              JUNCTION              2.29      6.55       0.0
  E134011              JUNCTION              3.13      5.79       0.0
  E134203              JUNCTION             -0.35      6.09       0.0
  E134209              JUNCTION              0.61      5.75       0.0
  E134212              JUNCTION              1.41      4.43       0.0
  E134213              JUNCTION              2.09      4.42       0.0
  E134217              JUNCTION              3.46      5.09       0.0
  E134219              JUNCTION              0.81      5.99       0.0
  E134222              JUNCTION              0.87      6.42       0.0
  E134224.1            JUNCTION              4.38      2.42       0.0
  E134224.2            JUNCTION              6.08      2.42       0.0
  E134250              JUNCTION              0.85      8.22       0.0
  E134254              JUNCTION              1.68      5.91       0.0
  E134255              JUNCTION              3.73      4.19       0.0
  E134257              JUNCTION              2.49      4.10       0.0
  E134262              JUNCTION              3.33      4.86       0.0
  E134263              JUNCTION              3.42      3.56       0.0
  E134266              JUNCTION              5.08      3.80       0.0
  E134267              JUNCTION              5.34      3.11       0.0
  E134278              JUNCTION              0.59      6.50       0.0
  E134288              JUNCTION              2.77      5.01       0.0
  E135108              JUNCTION              3.63      7.26       0.0
  E1364                JUNCTION              1.39      5.61       0.0
  E1366                JUNCTION              2.10      5.33       0.0
  E1368                JUNCTION              1.75      6.02       0.0
  E1369                JUNCTION              1.96      5.16       0.0
  E1371                JUNCTION              2.85      4.13       0.0
  E1376                JUNCTION              3.20      3.10       0.0
  E14100               JUNCTION             -1.50      8.20       0.0
  E14102.2             JUNCTION              2.60      3.20       0.0
  E14103               JUNCTION              3.00      1.98       0.0
  E14105               JUNCTION             -1.66      5.24       0.0
  E14106               JUNCTION              0.81      3.31       0.0
  E14108               JUNCTION              1.90      6.00       0.0
  E14109               JUNCTION              2.46      6.00       0.0
  E14112               JUNCTION              2.28      2.61       0.0
  E14116               JUNCTION              2.92      3.57       0.0
  E14120               JUNCTION             -0.25      5.74       0.0
  E14123               JUNCTION              3.17      2.62       0.0
  E14124               JUNCTION             -0.18      6.14       0.0
  E14124.01            JUNCTION              2.89      3.45       0.0
  E14127               JUNCTION              2.80      3.20       0.0
  E14128               JUNCTION             -0.14      6.60       0.0
  E1416                JUNCTION              0.09      4.95       0.0
  E14160               JUNCTION              4.07      4.04       0.0
  E14176               JUNCTION              2.47      4.22       0.0
  E14179               JUNCTION              3.40      3.23       0.0
  E14181               JUNCTION              3.25      3.45       0.0
  E14182               JUNCTION              2.86      3.64       0.0
  E14183               JUNCTION              3.53      3.39       0.0
  E142                 JUNCTION             -5.47      8.49       0.0
  E1420                JUNCTION             -2.10      6.43       0.0
  E1422                JUNCTION             -2.28      5.69       0.0
  E14232               JUNCTION              3.69      5.24       0.0
  E1425                JUNCTION             -1.10      5.69       0.0
  E1427.5              JUNCTION              2.19      3.40       0.0
  E1428                JUNCTION             -1.00      5.42       0.0
  E14311               JUNCTION             -2.43      7.23       0.0
  E14314               JUNCTION             -2.02      7.31       0.0
  E14317               JUNCTION              0.61      4.89       0.0
  E143267              JUNCTION             -3.67      7.51       0.0
  E143268              JUNCTION              0.03      3.56       0.0
  E143270              JUNCTION              0.39      3.50       0.0
  E143274              JUNCTION             -3.00      6.41       0.0
  E143277              JUNCTION             -1.05      5.73       0.0
  E143278              JUNCTION              0.66      4.05       0.0
  E143280              JUNCTION             -3.48      8.69       0.0
  E143282              JUNCTION              1.31      4.48       0.0
  E143283              JUNCTION              3.12      2.78       0.0
  E143284              JUNCTION              1.73      5.05       0.0
  E143286              JUNCTION              2.13      5.34       0.0
  E143287              JUNCTION              3.38      3.62       0.0
  E143288              JUNCTION              3.12      4.82       0.0
  E143289              JUNCTION              4.49      3.62       0.0
  E143299              JUNCTION              3.51      5.16       0.0
  E143300              JUNCTION              3.41      5.12       0.0
  E143304              JUNCTION              4.04      3.72       0.0
  E143312              JUNCTION             -2.81      9.54       0.0
  E143313              JUNCTION             -2.51     10.13       0.0
  E143314              JUNCTION             -2.17      8.24       0.0
  E143315              JUNCTION              1.22      5.25       0.0
  E143319              JUNCTION              0.75      5.16       0.0
  E143321              JUNCTION              1.43      4.75       0.0
  E143327              JUNCTION             -1.87      6.00       0.0
  E143329              JUNCTION              0.96      2.98       0.0
  E143335              JUNCTION             -1.75      6.00       0.0
  E143339              JUNCTION             -1.33      5.61       0.0
  E143340              JUNCTION             -0.91      5.96       0.0
  E143351              JUNCTION             -1.68      5.89       0.0
  E143352              JUNCTION             -1.37      5.94       0.0
  E143354              JUNCTION              2.51      3.00       0.0
  E143355              JUNCTION             -1.02      6.49       0.0
  E143356              JUNCTION              1.18      3.99       0.0
  E143358              JUNCTION              1.93      3.94       0.0
  E14336               JUNCTION             -2.30      8.12       0.0
  E143361              JUNCTION             -1.63      5.79       0.0
  E143362              JUNCTION              0.70      3.22       0.0
  E143366              JUNCTION             -1.49      6.22       0.0
  E143369              JUNCTION             -1.18      6.69       0.0
  E14337               JUNCTION              0.00      3.50       0.0
  E143373              JUNCTION             -1.21      6.84       0.0
  E143374              JUNCTION              1.12      4.45       0.0
  E14338               JUNCTION              0.53      5.30       0.0
  E14339               JUNCTION              1.12      4.84       0.0
  E143393              JUNCTION             -0.96      5.96       0.0
  E143393.1            JUNCTION              3.70      2.70       0.0
  E1434                JUNCTION             -0.34      7.20       0.0
  E14343               JUNCTION              1.94      4.29       0.0
  E14346               JUNCTION              1.63      6.04       0.0
  E14347               JUNCTION              2.83      4.33       0.0
  E14348               JUNCTION              2.09      6.40       0.0
  E14349               JUNCTION              3.72      4.05       0.0
  E1435                JUNCTION              0.14      5.92       0.0
  E14351               JUNCTION              2.61      6.76       0.0
  E14353               JUNCTION              3.66      6.02       0.0
  E14355               JUNCTION              3.42      6.99       0.0
  E14356               JUNCTION              4.25      5.37       0.0
  E14357               JUNCTION              4.60      5.24       0.0
  E14358               JUNCTION              0.47      6.39       0.0
  E14359               JUNCTION              2.45      4.76       0.0
  E143703              JUNCTION             -3.52      7.33       0.0
  E143707              JUNCTION             -0.37      4.41       0.0
  E143708              JUNCTION              1.14      3.36       0.0
  E143709              JUNCTION             -3.52      8.84       0.0
  E143713              JUNCTION             -3.53      7.84       0.0
  E143717              JUNCTION             -3.50      7.91       0.0
  E143720              JUNCTION             -1.29      5.69       0.0
  E143723              JUNCTION             -3.63      6.94       0.0
  E143736              JUNCTION             -3.46      6.71       0.0
  E143740              JUNCTION             -0.37      2.93       0.0
  E143741              JUNCTION              0.12      4.03       0.0
  E143746              JUNCTION             -3.10      6.46       0.0
  E143750              JUNCTION              0.89      7.65       0.0
  E143757              JUNCTION              1.60      6.12       0.0
  E143759              JUNCTION              1.75      5.55       0.0
  E143760              JUNCTION              1.55      5.90       0.0
  E143761.1            JUNCTION              1.66      5.95       0.0
  E143794              JUNCTION              2.48      2.60       0.0
  E143798              JUNCTION              5.11      2.85       0.0
  E1438                JUNCTION              0.12      6.00       0.0
  E143801              JUNCTION             -2.11      7.22       0.0
  E143811              JUNCTION             -2.10      7.62       0.0
  E143818              JUNCTION             -2.05      8.10       0.0
  E143823              JUNCTION              3.80      3.99       0.0
  E143823.5            JUNCTION              1.89      4.57       0.0
  E143829              JUNCTION              5.46      4.09       0.0
  E143835              JUNCTION             -1.68      6.10       0.0
  E143840              JUNCTION             -1.58      6.26       0.0
  E143846              JUNCTION             -1.10      8.63       0.0
  E143849              JUNCTION             -0.83      8.56       0.0
  E143852              JUNCTION             -0.42      9.71       0.0
  E143853              JUNCTION              3.46      5.20       0.0
  E143857              JUNCTION              4.07      5.51       0.0
  E143860              JUNCTION             -0.22      8.80       0.0
  E143863              JUNCTION              0.65      7.13       0.0
  E143872              JUNCTION              3.83      4.27       0.0
  E143880              JUNCTION              1.00      5.55       0.0
  E143880.01           JUNCTION              2.30      4.70       0.0
  E143882              JUNCTION              2.47      5.23       0.0
  E143883              JUNCTION              2.86      4.83       0.0
  E143884              JUNCTION              3.63      4.69       0.0
  E143884.01           JUNCTION              3.89      4.50       0.0
  E143885              JUNCTION              4.05      3.39       0.0
  E143888              JUNCTION              1.37      5.25       0.0
  E143963              JUNCTION             -3.51      8.70       0.0
  E143964              JUNCTION             -0.39      4.29       0.0
  E143971              JUNCTION             -3.66      8.67       0.0
  E143972              JUNCTION             -1.34      5.23       0.0
  E143973              JUNCTION             -1.14      4.42       0.0
  E143975              JUNCTION             -3.84     12.04       0.0
  E143977              JUNCTION              0.67      7.28       0.0
  E143978              JUNCTION              4.19      3.13       0.0
  E143979              JUNCTION              1.04      4.76       0.0
  E143986              JUNCTION             -3.00      9.95       0.0
  E143987              JUNCTION             -2.51     10.19       0.0
  E143988              JUNCTION             -2.81      8.60       0.0
  E143989              JUNCTION             -2.27      8.39       0.0
  E143991              JUNCTION             -1.31      7.60       0.0
  E143992              JUNCTION              0.46      4.71       0.0
  E143993              JUNCTION              0.81      4.39       0.0
  E143994              JUNCTION              2.40      2.54       0.0
  E143995              JUNCTION              2.12      3.81       0.0
  E143996.01           JUNCTION              3.40      2.75       0.0
  E143999              JUNCTION              1.39      3.19       0.0
  E1440                JUNCTION              0.55      6.76       0.0
  E144004              JUNCTION             -2.57      6.58       0.0
  E144011              JUNCTION             -2.48      6.00       0.0
  E144012              JUNCTION             -1.14      3.84       0.0
  E144014              JUNCTION             -0.02      4.14       0.0
  E144018              JUNCTION              3.05      3.05       0.0
  E144025              JUNCTION              4.22      3.59       0.0
  E144026              JUNCTION              5.06      1.66       0.0
  E144027              JUNCTION              4.67      4.24       0.0
  E144032              JUNCTION             -1.75      6.00       0.0
  E144034              JUNCTION              3.79      2.46       0.0
  E144050              JUNCTION             -1.73      7.22       0.0
  E1441                JUNCTION              0.45      6.28       0.0
  E1442                JUNCTION              0.90      5.59       0.0
  E144272              JUNCTION              0.14      7.94       0.0
  E1444                JUNCTION              1.19      4.41       0.0
  E1446                JUNCTION              2.73      3.34       0.0
  E1448                JUNCTION              1.99      4.68       0.0
  E1450                JUNCTION              3.14      4.06       0.0
  E145010              JUNCTION             -2.29      6.79       0.0
  E145011              JUNCTION              3.17      5.52       0.0
  E145050              JUNCTION             -3.51      8.42       0.0
  E145052              JUNCTION              0.14      3.31       0.0
  E145063              JUNCTION             -2.51      5.97       0.0
  E145066              JUNCTION             -0.19      3.81       0.0
  E145067              JUNCTION              2.35      1.29       0.0
  E145068.01           JUNCTION              0.58      2.88       0.0
  E145068.05           JUNCTION              0.80      3.40       0.0
  E145070              JUNCTION             -0.28      3.59       0.0
  E145072              JUNCTION              0.54      3.88       0.0
  E145076              JUNCTION              1.20      2.53       0.0
  E145077              JUNCTION              1.53      2.50       0.0
  E145201              JUNCTION             -3.08      4.58       0.0
  E145202              JUNCTION             -1.38      4.83       0.0
  E145205              JUNCTION             -1.16      4.13       0.0
  E145206              JUNCTION             -0.95      3.37       0.0
  E145207              JUNCTION             -0.75      4.25       0.0
  E1453                JUNCTION              0.81      6.10       0.0
  E145300              JUNCTION             -2.74      7.04       0.0
  E145303              JUNCTION              2.00      4.50       0.0
  E145304              JUNCTION              2.50      4.50       0.0
  E145305              JUNCTION              2.20      3.80       0.0
  E145306              JUNCTION              2.50      4.00       0.0
  E145308              JUNCTION              3.80      3.70       0.0
  E1454                JUNCTION              1.00      5.68       0.0
  E1455                JUNCTION              4.44      1.83       0.0
  E1456                JUNCTION              3.27      3.69       0.0
  E1458                JUNCTION              3.68      3.24       0.0
  E1459                JUNCTION              0.96      4.72       0.0
  E146002              JUNCTION             -1.99      9.50       0.0
  E146003              JUNCTION             -1.86      7.14       0.0
  E146004              JUNCTION             -1.69      9.69       0.0
  E147002              JUNCTION             -2.32      7.42       0.0
  E147003              JUNCTION             -1.88      6.78       0.0
  E147003.3            JUNCTION             -0.50      4.70       0.0
  E147003.7            JUNCTION             -0.25      3.25       0.0
  E147004              JUNCTION             -1.64      5.78       0.0
  E147004.01           JUNCTION              1.05      3.40       0.0
  E147008              JUNCTION             -5.70     10.88       0.0
  E147013              JUNCTION             -5.31     10.88       0.0
  E147013.02           JUNCTION             -5.18     12.84       0.0
  E147016              JUNCTION             -3.53      7.53       0.0
  E149                 JUNCTION             -2.54      5.80       0.0
  E15360               JUNCTION              2.71      4.70       0.0
  E15361               JUNCTION              1.21      4.95       0.0
  E15373               JUNCTION              3.39      4.32       0.0
  E153770              JUNCTION              4.57      3.80       0.0
  E153771.02           JUNCTION              5.85      2.53       0.0
  E153772.02           JUNCTION              5.24      3.70       0.0
  E15378               JUNCTION              4.06      4.44       0.0
  E153868              JUNCTION              4.51      7.00       0.0
  E153873              JUNCTION              4.69      7.06       0.0
  E153874              JUNCTION              6.35      3.87       0.0
  E153875              JUNCTION              5.87      4.22       0.0
  F13250               JUNCTION              0.62      9.04       0.0
  F13251               JUNCTION              0.96      8.95       0.0
  F13252               JUNCTION              2.08      7.68       0.0
  F13255               JUNCTION              2.63      6.50       0.0
  F13259               JUNCTION              0.97      8.14       0.0
  F13260               JUNCTION              3.95      4.90       0.0
  F13260.01            JUNCTION              4.22      4.68       0.0
  F13260.03            JUNCTION              4.79      5.11       0.0
  F13264               JUNCTION              2.08      8.80       0.0
  F13269               JUNCTION              2.15      8.68       0.0
  F13274               JUNCTION              4.87      6.34       0.0
  F13277               JUNCTION              4.93      6.65       0.0
  F13281               JUNCTION              5.36      5.40       0.0
  F13289               JUNCTION              7.09      3.86       0.0
  F13290               JUNCTION              5.39      6.00       0.0
  F13291               JUNCTION              5.48      4.44       0.0
  F13292               JUNCTION              5.70      4.49       0.0
  F13295               JUNCTION              6.15      4.16       0.0
  F133438              JUNCTION              1.26      4.85       0.0
  F133448              JUNCTION              2.70      5.20       0.0
  F133451              JUNCTION              2.60      5.53       0.0
  F133452              JUNCTION              4.88      4.27       0.0
  F133459              JUNCTION              2.39      5.51       0.0
  F133462              JUNCTION              6.06      2.75       0.0
  F133463              JUNCTION              7.09      3.13       0.0
  F133464              JUNCTION              2.79      5.62       0.0
  F133469              JUNCTION              5.08      5.11       0.0
  F134101              JUNCTION             -0.60      6.56       0.0
  F134104              JUNCTION              1.30      4.66       0.0
  F134110              JUNCTION              3.13      4.87       0.0
  F134118              JUNCTION              4.34      3.26       0.0
  F134126              JUNCTION              4.42      3.86       0.0
  F134140              JUNCTION              5.14      4.25       0.0
  F134147              JUNCTION              5.70      3.31       0.0
  F134200              JUNCTION              0.47      5.44       0.0
  F134230              JUNCTION              0.93      5.00       0.0
  F134231              JUNCTION              3.72      4.27       0.0
  F135012              JUNCTION              7.70      3.30       0.0
  F135999              JUNCTION              4.94      4.51       0.0
  F139004              JUNCTION              6.80      4.28       0.0
  F139015              JUNCTION              4.58      4.94       0.0
  F139018              JUNCTION              4.62      2.00       0.0
  F139025              JUNCTION              6.02      2.82       0.0
  F139026              JUNCTION              4.51      3.69       0.0
  F139028              JUNCTION              4.13      3.20       0.0
  F139029              JUNCTION              3.59      2.90       0.0
  F139031              JUNCTION              2.77      3.85       0.0
  F143510              JUNCTION              2.18      4.99       0.0
  F143512              JUNCTION             -1.50      8.60       0.0
  F143513              JUNCTION              1.43      3.73       0.0
  F143520              JUNCTION             -1.04      6.05       0.0
  F143529              JUNCTION             -0.98      5.79       0.0
  F143532              JUNCTION              3.50      3.35       0.0
  F143535              JUNCTION             -0.91      6.44       0.0
  F143537              JUNCTION             -0.87      6.39       0.0
  F143539              JUNCTION              2.49      2.55       0.0
  F143543              JUNCTION             -0.88      6.07       0.0
  F143545              JUNCTION              3.68      4.35       0.0
  F143548              JUNCTION             -3.68     10.15       0.0
  F143553              JUNCTION             -0.82      7.61       0.0
  F143554              JUNCTION              4.04      3.22       0.0
  F143560              JUNCTION              5.94      5.77       0.0
  F143571              JUNCTION              8.98      3.43       0.0
  F143575              JUNCTION              4.00      8.24       0.0
  F143587              JUNCTION             -0.79      8.53       0.0
  F143590              JUNCTION             -0.16      8.26       0.0
  F143594              JUNCTION              0.02      5.52       0.0
  F143595              JUNCTION              0.19      5.50       0.0
  F143602              JUNCTION             -0.85      7.84       0.0
  F143603              JUNCTION             -0.27      5.82       0.0
  F143609              JUNCTION              4.59      5.52       0.0
  F143611.01           JUNCTION              5.86      4.61       0.0
  F143613              JUNCTION              7.02      3.40       0.0
  F143613.1            JUNCTION              7.20      2.96       0.0
  F143617              JUNCTION             -0.83      7.12       0.0
  F143622              JUNCTION              3.46      4.15       0.0
  F143636              JUNCTION              0.34      5.35       0.0
  F143637              JUNCTION              0.87      5.35       0.0
  F143637.1            JUNCTION             -4.85      9.84       0.0
  F143640              JUNCTION              1.54      4.81       0.0
  F143643              JUNCTION              3.24      3.15       0.0
  F143648              JUNCTION              4.03      3.10       0.0
  F143648.1            JUNCTION              6.20      3.40       0.0
  F143649              JUNCTION              4.77      3.35       0.0
  F143651              JUNCTION              6.22      2.90       0.0
  F143654.1            JUNCTION              0.85      4.44       0.0
  F143656              JUNCTION              1.40      6.34       0.0
  F143661              JUNCTION              1.65      5.64       0.0
  F143662              JUNCTION              1.46      5.72       0.0
  F143665              JUNCTION              1.92      4.86       0.0
  F143670              JUNCTION              3.29      3.58       0.0
  F143671              JUNCTION              3.70      3.58       0.0
  F143674              JUNCTION              3.86      3.91       0.0
  F143676              JUNCTION              4.18      3.82       0.0
  F143682.01           JUNCTION              4.33      4.09       0.0
  F143692              JUNCTION              5.08      3.83       0.0
  F143693              JUNCTION              5.27      5.56       0.0
  F143701              JUNCTION              3.30      7.51       0.0
  F143702              JUNCTION              4.64      6.35       0.0
  F143705              JUNCTION              7.08      4.05       0.0
  F143707              JUNCTION              4.93      6.20       0.0
  F143708              JUNCTION              5.13      5.61       0.0
  F143889              JUNCTION              1.58      6.57       0.0
  F143890              JUNCTION              2.00      6.88       0.0
  F143891              JUNCTION              2.05      7.08       0.0
  F143892              JUNCTION              3.25      6.75       0.0
  F143899              JUNCTION              3.25      6.41       0.0
  F143902              JUNCTION              3.86      7.45       0.0
  F143905              JUNCTION              6.43      3.83       0.0
  F143906              JUNCTION              4.16      6.62       0.0
  F143909              JUNCTION              4.40      7.10       0.0
  F143911              JUNCTION              5.78      5.15       0.0
  F143913              JUNCTION              6.15      4.33       0.0
  F143914              JUNCTION              8.12      3.00       0.0
  F143921              JUNCTION              5.09      5.59       0.0
  F143922              JUNCTION              6.83      4.08       0.0
  F143928              JUNCTION              5.80      4.97       0.0
  F143930              JUNCTION              6.66      3.58       0.0
  F143941              JUNCTION              5.13      3.92       0.0
  F143943              JUNCTION              7.67      2.70       0.0
  F143947              JUNCTION              3.89      6.17       0.0
  F143949              JUNCTION              4.94      3.62       0.0
  F143951              JUNCTION              3.94      6.30       0.0
  F143952              JUNCTION              4.38      4.10       0.0
  F143953              JUNCTION              5.77      4.20       0.0
  F143958              JUNCTION              6.92      3.92       0.0
  F144001              JUNCTION              4.37      2.25       0.0
  F144005.1            JUNCTION              2.00      4.50       0.0
  F14501.1             JUNCTION              1.00      1.25       0.0
  F145017              JUNCTION              7.45      2.66       0.0
  F14502               JUNCTION              1.32      7.00       0.0
  F14503               JUNCTION              1.19      6.80       0.0
  F14504               JUNCTION              1.55      7.17       0.0
  F146005              JUNCTION              0.76      7.15       0.0
  F146006              JUNCTION              6.87      4.22       0.0
  F14601               JUNCTION              2.46      6.81       0.0
  F14601.1             JUNCTION             -2.21      6.67       0.0
  F146015              JUNCTION              8.66      2.50       0.0
  F14602               JUNCTION              2.47      6.79       0.0
  F14603               JUNCTION              3.23      6.02       0.0
  F14604               JUNCTION              3.80      6.04       0.0
  F147004              JUNCTION              1.16      6.34       0.0
  F147005              JUNCTION              1.03      5.00       0.0
  F147020              JUNCTION              6.05      5.15       0.0
  F147143              JUNCTION              2.25      8.87       0.0
  F147147              JUNCTION              5.24      8.03       0.0
  F147148              JUNCTION              5.90      6.54       0.0
  F147148.1            JUNCTION              6.50      7.75       0.0
  F149001.1            JUNCTION             -4.96      9.96       0.0
  F149001.2            JUNCTION              6.37      3.83       0.0
  F149002.1            JUNCTION             -2.46      4.96       0.0
  F149011              JUNCTION              5.60      5.14       0.0
  F149012              JUNCTION              2.63      9.12       0.0
  F149015              JUNCTION              4.44      7.97       0.0
  F149020              JUNCTION              6.33      3.95       0.0
  F149025              JUNCTION              7.59      3.61       0.0
  F149032              JUNCTION              0.86      4.50       0.0
  F153938              JUNCTION              8.02      2.45       0.0
  F153955              JUNCTION              6.68      2.25       0.0
  F153956              JUNCTION              6.67      2.28       0.0
  F153959              JUNCTION              7.62      3.18       0.0
  D14860               OUTFALL              -2.17      1.75       0.0
  D1489                OUTFALL              -2.06      1.00       0.0
  D14240               OUTFALL               0.23      6.00       0.0
  D14153               OUTFALL               1.73      1.33       0.0
  D143000              OUTFALL              -3.53      1.25       0.0
  D14165               OUTFALL               4.48      1.25       0.0
  D14110               OUTFALL              -2.05      1.25       0.0
  D14124               OUTFALL               0.62      1.25       0.0
  D14300               OUTFALL              -4.57      1.50       0.0
  D14200               OUTFALL              -2.33      2.00       0.0
  E14310               OUTFALL              -2.10      2.50       0.0
  E145200              OUTFALL              -3.20      2.50       0.0
  E141                 OUTFALL              -5.50      3.50       0.0
  E147007              OUTFALL              -0.51      5.50       0.0
  E143250              OUTFALL              -3.54      6.00       0.0
  E143699              OUTFALL              -3.52      6.00       0.0
  E14330               OUTFALL              -2.97      3.50       0.0
  St1                  STORAGE               0.00      4.00       0.0
  St2                  STORAGE               0.00      4.00       0.0
  
  
  ************
  Link Summary
  ************
  Name             From Node        To Node          Type            Length    %Slope Roughness
  ---------------------------------------------------------------------------------------------
  294              F13264           F13259           CONDUIT          506.9    0.2190    0.0120
  798              F13274           F13269           CONDUIT          105.5    2.5803    0.0120
  799              F13269           F13264           CONDUIT           89.4    0.0783    0.0120
  800              F13277           F13274           CONDUIT          213.1    0.0282    0.0120
  804              F13281           F13277           CONDUIT          165.3    0.2601    0.0120
  807              F13289           F13281           CONDUIT          517.3    0.3344    0.0120
  815              F143702          F143701          CONDUIT           89.6    1.4959    0.0120
  1037             F143707          F143701          CONDUIT          230.1    0.7084    0.0120
  1056             F13251           F13250           CONDUIT           84.5    0.4023    0.0120
  1062             F13255           F13252           CONDUIT          204.1    0.2695    0.0120
  1063             F13252           F13251           CONDUIT           55.8    2.0079    0.0120
  1067             F143705          F143702          CONDUIT          106.2    2.2973    0.0120
  1068             F145017          F143656          CONDUIT          504.0    1.2004    0.0120
  1070             F147020          F143693          CONDUIT          455.2    0.1714    0.0120
  1075             F143692          F143693          CONDUIT          221.9   -0.0856    0.0120
  1120             F143671          F143670          CONDUIT           82.9    0.4947    0.0150
  1127             F143682.01       F143676          CONDUIT          155.9    0.0962    0.0120
  1131             F143676          F143674          CONDUIT           35.7    0.8966    0.0150
  1132             F143674          F143671          CONDUIT           97.0    0.1649    0.0150
  1134             F143665          F143662          CONDUIT          172.9    0.2661    0.0120
  1135             F143662          F143661          CONDUIT           92.8   -0.2047    0.0120
  1142             F143692          F143674          CONDUIT          328.2    0.3717    0.0150
  1145             F144001          F143671          CONDUIT          174.2    0.3847    0.0150
  1165             F143682.01       F143648.1        CONDUIT          322.6   -0.5796    0.0150
  1167             F143648.1        F149001.2        CONDUIT          166.6   -0.1021    0.0140
  1172             F143661          F143656          CONDUIT           44.8    0.5579    0.0120
  1549             F143701          F13250           CONDUIT          262.4    1.0212    0.0120
  1556             F143670          F143665          CONDUIT          187.7    0.7301    0.0150
  8918             E133160          E133151          CONDUIT          311.4    0.2023    0.0140
  8943             F133463          F133462          CONDUIT          254.6    0.4045    0.0120
  9225             F133464          F133459          CONDUIT           45.0    0.8883    0.0140
  9237             E133481          E133478          CONDUIT          133.8    0.1644    0.0150
  9246             F133459          F133448          CONDUIT           56.6   -0.5478    0.0120
  11029            E133172          E133160          CONDUIT          296.3    0.3004    0.0140
  11880            F143553          F143548          CONDUIT          173.3    1.6510    0.0120
  11883            F143575          F143617          CONDUIT          238.5    2.0254    0.0120
  11886            E1453            E1440            CONDUIT          126.7    0.2053    0.0120
  11888            E143355          E143352          CONDUIT           68.0    0.5149    0.0120
  11890            E143358          E143355          CONDUIT           66.2    4.4627    0.0120
  11898            F134140          F135999          CONDUIT          121.7    0.1644    0.0120
  11939            E133205          E133223          CONDUIT          280.8    0.2814    0.0140
  11940            E133223          E135108          CONDUIT          136.9    1.0375    0.0140
  12022            E133215          E133214          CONDUIT          165.5    0.7431    0.0120
  12048            E133092          E133127          CONDUIT          215.6    0.4082    0.0120
  12071            E134262          E134254          CONDUIT          344.0    0.4797    0.0120
  12076            E134010          E134007          CONDUIT          201.2    0.5367    0.0150
  12077            E134011          E134010          CONDUIT          147.7    0.5689    0.0150
  12136            E133101          E133100          CONDUIT           73.7    1.6140    0.0120
  12137            E133100          E133251          CONDUIT          101.8    0.4126    0.0120
  12154            E133111          E133100          CONDUIT          103.7    0.8874    0.0120
  12582            E133211          E133205          CONDUIT          337.3    0.1957    0.0140
  12605            E133132          E133127          CONDUIT          340.8    1.1648    0.0120
  12610            F133452          F133451          CONDUIT          327.9    0.6953    0.0120
  12611            F133451          F133448          CONDUIT          135.6   -0.0737    0.0120
  12615            F134230          F134200          CONDUIT          235.3    0.1955    0.0120
  12646            E134254          E134250          CONDUIT          360.9    0.2300    0.0120
  12651            E1369            E1368            CONDUIT           76.2    0.2755    0.0120
[...]
  15799                       0.01      0.01      0.01     10.98         0.01
  15805                       7.24     11.88      7.24     10.65         4.92
  15819                       2.25      2.25      4.24      0.01         0.01
  15849                       1.66      1.66      2.78      0.01         0.01
  15906                       4.35      4.35      7.75      0.94         0.11
  15909                      21.03     21.03     21.48      1.69         1.70
  15911                       6.46      6.46      7.45      0.01         0.01
  15912                      20.09     20.09     20.66      1.37         0.01
  15914                       0.99      0.99      1.14      0.01         0.01
  15915                       1.64      1.64     13.38      0.01         0.01
  15916                       0.81      0.81      1.59      0.01         0.01
  15930                       7.52      7.52      9.01      0.01         0.01
  15958                       0.01      0.01     20.81      0.01         0.01
  15962                       1.67      1.67      3.34      0.01         0.01
  15964                      20.66     20.66     21.99      1.43         1.44
  15974                      17.87     17.87     19.88      0.60         0.11
  15993                       0.01      1.03      0.01      4.71         0.01
  16012                       0.01      0.01     11.98      0.01         0.01
  16017                       1.05      1.05      3.97      4.09         0.01
  16032                       4.93      4.93     22.17      2.03         2.03
  16051                      17.01     17.01     23.21      1.05         1.05
  16055                       9.66      9.66      9.74      7.79         7.85
  16064                       0.01      3.69      0.01      4.10         0.01
  16097                      16.37     16.37     17.01     12.67        11.91
  16109                      16.31     16.31     16.37     13.26        11.96
  16132                       0.01      0.01      1.19      0.01         0.01
  16136                       0.01      0.01      0.14      0.01         0.01
  16142                       7.02     18.73      7.02     21.50         7.02
  16148                       0.01      1.36      0.01     23.02         0.01
  16154                       0.01      0.01      3.62      0.01         0.01
  16155                       0.01      0.01      0.01     22.92         0.01
  16181                       9.34      9.34     12.03      8.73         8.72
  16293                      17.41     17.41     22.92      0.01         0.01
  16322                      15.30     15.30     18.48      0.01         0.01
  16323                      15.30     15.30     16.96      2.42         2.33
  16345                      11.23     11.47     11.23     22.30        10.61
  16374                      10.57     12.92     10.57     23.26        10.02
  16396                       0.61      0.64      0.61      0.95         0.61
  16397                       0.01      0.61      0.01      1.95         0.01
  16424                      10.57     10.57     10.75      6.14         6.12
  16431                       9.74      9.74     10.05      0.59         0.94
  16441                      12.32     12.32     22.99      0.01         0.01
  16456                       8.91      9.02      8.91     16.31         8.91
  16512                       3.76      3.77      3.84      3.89         3.76
  16559                       0.01      0.01     10.04      0.01         0.01
  16563                      15.55     15.55     22.90      0.01         0.01
  16564                       0.01      0.01      2.45      0.01         0.01
  16588                      15.90     16.91     15.90     15.84        12.49
  16589                       9.61      9.61     18.76      0.01         0.01
  16607                       1.69      1.69      3.62      0.01         0.01
  16609                       0.01      0.01     15.43      0.01         0.01
  16611                       4.61      4.61      4.64      4.64         4.61
  16652                      13.29     13.29     14.84      0.01         0.01
  16660                      12.57     12.57     13.29      2.45         2.67
  16679                      11.23     11.23     12.57      0.17         0.18
  16711                      20.36     20.36     23.24      0.01         0.01
  16726                      15.24     15.24     15.68      0.49         0.12
  16741                      14.73     15.90     14.73     17.70        14.73
  16743                      16.13     16.13     20.36      1.88         1.88
  16750                       0.89      0.89     17.01      0.01         0.01
  16751                       1.96      1.96      8.92      0.01         0.01
  16760                      11.47     11.57     11.47     14.78         9.39
  16763                       9.85      9.85     10.33      2.12         2.16
  16769                       1.44      1.44     16.28      0.01         0.01
  16783                       2.07      2.51      2.07      2.37         1.36
  16787                       0.01      0.01      2.19      0.01         0.01
  16788                       1.84      1.84      3.06      0.01         0.01
  16798                       2.61      2.61      9.51      0.01         0.01
  16801                      16.74     16.74     16.77     13.77        13.80
  16803                      11.21     11.21     11.57      0.14         0.01
  16819                      13.09     13.09     15.61      0.01         0.01
  16821                       2.41      2.41      2.51      0.23         0.28
  16823                       1.62      2.05      1.62      5.39         1.62
  16827                       0.89      0.89      2.87      0.01         0.01
  16830                       0.64      1.62      0.64      4.34         0.64
  16868                       1.47      1.47      1.95      0.01         0.01
  16895                       3.09      3.09     10.02      0.01         0.01
  16918                       0.01      0.01      0.01      0.02         0.01
  16919                       2.49      2.49      2.96      0.39         0.39
  16920                       2.96      2.96      4.22      0.95         0.96
  16930                       0.01      1.86      0.01      3.40         0.01
  16938                       0.01      1.21      0.01      2.16         0.01
  16951                       2.36      2.36      2.49      0.01         0.01
  16952                      16.31     16.31     17.98      6.64         0.01
  16970                       6.72      6.72      8.70     22.64         0.01
  16979                       3.16      3.16      4.16      0.01         0.01
  16980                       1.51      2.52      1.51      3.23         1.51
  16983                      10.13     10.13     11.79      0.01         0.01
  17018                       0.01      0.01     23.20      9.13         0.01
  17036                       0.01      0.01      1.92      0.01         0.01
  17078                       0.75      0.75      2.87      2.50         0.01
  17081                      10.05     10.05     11.09      3.53         3.82
  17089                       2.67      3.52      2.67      4.55         2.67
  17098                       9.22      9.22     22.60      0.01         0.01
  17125                       0.31      3.57      0.31      4.92         0.31
  17128                       2.91      2.91      3.98      0.26         0.27
  17136                       9.07      9.07      9.74      0.01         0.16
  17147                       3.40      3.40      4.81      0.01         0.01
  17178                       2.38      2.38      4.81      0.01         0.01
  17195                       4.59      4.59      7.35      0.01         0.01
  17197                       7.35      7.35      9.07      0.01         0.30
  17205                       3.94      3.94      9.14      3.02         3.03
  17248                       3.86      3.86      5.77      1.96         1.96
  17253                       3.33      3.33      4.22      2.49         2.49
  17258                       3.59      4.23      3.59      7.39         3.59
  17262                       1.90      1.90      3.86      1.48         1.47
  17264                       0.35      0.35      2.11      0.01         0.01
  17267                       6.53      6.53      9.22      1.19         1.26
  17269                       1.74      1.74      2.77      0.01         0.01
  17287                       4.23      4.39      4.23      4.97         3.52
  17302                       0.01      1.40      0.01      1.64         0.01
  17303                       3.80      3.80      6.75      1.34         1.35
  17313                       4.75      4.75     13.05      2.13         0.91
  17317                      11.79     11.79     17.09      0.01         0.01
  17335                       0.35      0.36      0.35      0.45         0.35
  17336                       6.09      6.09      6.75      1.90         1.31
  17341                       1.21      3.19      1.21      3.95         1.04
  17348                       1.40      1.41      1.40      1.45         1.40
  17403                       3.92      3.92      4.08      0.44         0.01
  17427                       1.98      1.98      3.37      0.01         0.01
  17604                       1.83      1.83      2.09      0.01         0.01
  21064                      22.32     22.32     22.34      0.01         0.01
  21065                      22.31     22.31     22.32     13.22        13.26
  21068                      22.41     22.41     22.44      0.01         0.01
  21082                       0.20      0.20     21.90      0.01         0.01
  21084                       0.01      0.01     23.05      0.01         0.01
  21103                      22.26     22.26     22.28      6.34         6.45
  21105                       1.15      1.15     22.26      0.01         0.01
  21108                       1.14      1.14      1.22      0.40         0.40
  21150                       1.57      1.57      1.60      0.56         0.01
  21154                       2.09      2.09      2.42      0.01         0.01
  21236                       2.26      2.27      2.27      1.76         1.52
  21237                       1.74      1.74     22.06      1.74         1.74
  21241                       1.74      1.74     22.09      2.56         0.01
  21261                      22.13     22.13     22.23      1.66         1.67
  22017                       9.28      9.28     22.87      0.01         0.01
  22426                      22.35     22.36     22.35     21.82        21.48
  23483                      22.21     22.21     22.74      0.01         0.01
  23487                      22.25     22.25     22.36     21.99        22.00
  23491                      22.42     22.42     22.43      3.98         4.97
  23493                      22.29     22.29     22.30      0.72         0.72
  23496                      22.21     22.21     22.23      0.35         0.01
  23498                       9.74      9.74     11.95      0.01         0.01
  23501                      22.23     22.23     22.29      0.01         0.01
  23503                      22.32     22.32     22.87      0.01         0.01
  23504                      17.58     17.58     22.82      0.01         0.01
  23506                      22.29     22.29     22.31      7.90         7.90
  23507                       8.97      9.06      8.97     14.14         8.97
  23511                       8.07      8.07      9.06      3.09         3.09
  23513                      22.18     22.18     22.49      0.01         0.01
  23516                      10.21     10.21     16.73      2.51         2.51
  23521                       1.95      1.95     16.73      9.75         0.58
  23524                      15.85     15.85     22.01      0.01         0.01
  23529                      23.07     23.07     23.15     21.79        21.77
  23533                      21.99     21.99     23.17      0.01         0.01
  23540                      22.44     22.44     22.49      0.01         0.01
  23541                      22.77     22.77     23.05      0.01         0.01
  23544                       3.96      3.96     22.53      0.01         0.01
  23545                       0.20      0.20      0.84      0.01         0.01
  23546                      17.61     17.61     21.81      0.01         0.01
  23548                       0.61      0.61      1.11      0.01         0.01
  23551                       1.90      1.90      3.52      0.01         0.01
  23553                       3.48      3.48      4.59      0.01         0.01
  23554                       4.08      4.08     11.95      0.64         0.64
  23555                       0.01      0.01      6.79      0.01         0.01
  23560                      22.21     22.21     22.26      0.01         0.01
  23563                       4.11      4.11      4.53      0.01         0.01
  23564                      22.19     22.19     22.32      0.01         0.01
  23566                       0.01      0.01     22.41      0.01         0.01
  23567                       2.37     13.54      2.37     13.67         2.37
  23570                      22.35     22.35     22.41      4.38         2.73
  23572                      22.40     22.40     22.42      0.42         0.42
  23574                      10.96     10.96     12.67      1.24         0.01
  23576                      16.15     16.15     23.06      0.01         0.01
  23577                      16.98     16.98     20.88      0.56         0.56
  23583                       9.14      9.14     23.08      0.01         0.01
  23585                       8.99      8.99      9.07      0.34         0.01
  23586                       9.76      9.76      9.92      5.57         1.80
  23587                       9.30      9.30      9.96      0.51         0.51
  23588                       8.91      8.91      9.17      2.36         2.40
  23589                      11.09     11.09     11.21      7.71         6.62
  23590                       5.83      5.83      9.19      2.95         2.94
  23591                      14.66     14.66     15.88      1.18         0.01
  23592                       9.84      9.84     22.95      0.01         0.01
  23597                      22.64     22.64     22.87      1.98         1.98
  23598                       2.45      2.45     22.72      0.01         0.01
  23600                       1.69      1.69      1.98      0.01         0.01
  23603                       1.87      1.87      1.95      1.36         0.73
  23604                       1.46      1.54      1.46      2.08         1.05
  23608                       1.25      1.25      9.51      0.01         0.01
  23612                       2.36      2.36     13.08      0.01         0.01
  23613                       2.16      2.16     13.46      0.01         0.01
  23615                      21.43     21.43     22.70      0.01         0.01
  23619                      14.84     14.84     15.43      0.01         1.24
  23621                       9.27     10.04      9.27     20.96         8.95
  23627                       9.08      9.27      9.08     22.75         8.88
  23628                       1.75      1.91      1.75      5.92         1.75
  23629                       1.36      1.36      1.75     22.12         0.01
  23644                       2.04      2.04      2.18      0.79         0.79
  23646                       1.35      1.35      8.35      0.07         0.07
  23647                       2.64      2.64     14.57      0.01         0.01
  23648                      10.67     10.67     13.72      1.06         1.06
  23650                      13.72     13.72     19.54      1.96         1.96
  23655                      13.87     13.87     21.52      0.01         0.01
  23657                      21.52     21.52     22.20      0.01         0.01
  23673                       8.29      8.29      8.35      6.40         0.01
  23677                       7.51      7.51      8.56      0.01         0.01
  23678                       2.65      2.65      3.70      1.41         1.42
  23679                       2.86      2.86      3.70      2.05         0.15
  23682                       2.86      2.86     22.84      2.86         2.86
  23689                      23.01     23.01     23.26      0.01         0.01
  23690                      23.11     23.11     23.11      0.01         0.01
  23693                      22.00     22.00     22.00      5.71         6.18
  23694                       2.29      2.29      7.23      1.87         1.87
  23695                       7.23      7.23     22.14      1.15         1.14
  23709                       6.69      6.69      6.80      3.14         0.13
  23716                      20.15     20.15     21.92      0.01         0.01
  23717                       4.63      4.63     20.15      0.01         0.01
  23732                       2.95      2.95      8.08      0.01         0.01
  23734                       8.08      8.08     22.08      0.01         0.01
  23739                       1.46      1.46      7.21      1.11         1.11
  23742                      13.07     13.07     13.08      0.01         0.01
  23746                       9.17      9.17      9.30      2.83         3.02
  23753                       0.31      0.31     23.25      0.01         0.01
  23754                       7.36      7.36     23.14      0.01         0.01
  23760                       1.42      1.42      2.25      0.01         0.01
  23761                       2.04      2.04     22.38      0.01         0.01
  23762                      22.22     22.22     22.40      1.54         1.54
  23771                       1.59      1.59      2.98      0.24         0.01
  23774                       3.05      3.05     22.31      0.01         0.01
  23780                      15.16     15.16     22.90      0.01         0.01
  23784                       2.37      2.37     10.88      3.51         0.01
  23786                      12.96     12.96     22.69      0.01         0.01
  23788                       3.06      3.06     22.56      0.01         0.01
  23789                       1.40      1.40     13.66      0.01         0.01
  23792                       1.26      1.26      6.84      0.01         0.01
  23800                       0.16      0.16     22.27      0.01         0.01
  23803                       1.72      1.72     11.23      0.46         0.46
  23804                       1.44      1.44      1.72      0.55         0.01
  23807                       8.78      8.78     12.32      0.01         0.01
  23811                       5.55      5.55     17.18      0.01         0.01
  23812                      17.18     17.18     23.23      0.01         0.01
  23815                      11.08     11.08     11.79      0.01         0.01
  23820                       1.19      1.22      1.19      1.43         1.19
  23833                       1.86      1.87      1.86      1.99         0.64
  23834                      17.09     17.09     17.98     10.07        11.08
  C1                         23.05     23.07     23.05     22.43        22.32
  C2                         22.88     22.88     23.05     22.46         0.01
  C3                         23.05     23.05     23.20      0.01         0.01
  C4                         23.05     23.05     23.30      0.01         0.01
  C5                         23.05     23.05     23.39      0.01         0.01
  C6                         22.89     22.89     23.05     17.67        17.30
  C7                         10.14     10.14     22.73      0.01         0.01
  C8                          8.08      8.08     22.73      0.01         0.01
  

  Analysis begun on:  Tue Jan 09 15:28:54 2018
  Analysis ended on:  Tue Jan 09 15:30:33 2018
  Total elapsed time: 00:01:39