
  EPA STORM WATER MANAGEMENT MODEL - VERSION 5.1 (Build 5.1.012)
  --------------------------------------------------------------

  
  *********************************************************
  NOTE: The summary statistics displayed in this report are
  based on results found at every computational time step,  
  not just on results from each reporting time step.
  *********************************************************
  
  ****************
  Analysis Options
  ****************
  Flow Units ............... CFS
  Process Models:
    Rainfall/Runoff ........ YES
    RDII ................... NO
    Snowmelt ............... NO
    Groundwater ............ NO
    Flow Routing ........... YES
    Ponding Allowed ........ NO
    Water Quality .......... NO
  Infiltration Method ...... MODIFIED_GREEN_AMPT
  Flow Routing Method ...... DYNWAVE
  Starting Date ............ 02/06/2018 00:00:00
  Ending Date .............. 02/06/2018 14:00:00
  Antecedent Dry Days ...... 0.0
  Report Time Step ......... 00:00:10
  Wet Time Step ............ 00:05:00
  Dry Time Step ............ 01:00:00
  Routing Time Step ........ 10.00 sec
  Variable Time Step ....... YES
  Maximum Trials ........... 8
  Number of Threads ........ 1
  Head Tolerance ........... 0.005000 ft
  
  
  **************************        Volume         Depth
  Runoff Quantity Continuity     acre-feet        inches
  **************************     ---------       -------
  Total Precipitation ......         8.896         1.525
  Evaporation Loss .........         0.000         0.000
  Infiltration Loss ........         4.448         0.762
  Surface Runoff ...........         4.232         0.725
  Final Storage ............         0.218         0.037
  Continuity Error (%) .....        -0.021
  
  
  **************************        Volume        Volume
  Flow Routing Continuity        acre-feet      10^6 gal
  **************************     ---------     ---------
  Dry Weather Inflow .......         0.000         0.000
  Wet Weather Inflow .......         4.231         1.379
  Groundwater Inflow .......         0.000         0.000
  RDII Inflow ..............         0.000         0.000
  External Inflow ..........         0.000         0.000
  External Outflow .........         1.936         0.631
  Flooding Loss ............         0.000         0.000
  Evaporation Loss .........         0.000         0.000
  Exfiltration Loss ........         0.000         0.000
  Initial Stored Volume ....         0.689         0.224
  Final Stored Volume ......         2.990         0.974
  Continuity Error (%) .....        -0.123
  
  
  ***************************
  Time-Step Critical Elements
  ***************************
  None
  
  
  ********************************
  Highest Flow Instability Indexes
  ********************************
  All links are stable.
  
  
  *************************
  Routing Time Step Summary
  *************************
  Minimum Time Step           :     3.90 sec
  Average Time Step           :    10.00 sec
  Maximum Time Step           :    10.00 sec
  Percent in Steady State     :     0.00
  Average Iterations per Step :     2.01
  Percent Not Converging      :     0.12
  
  
  ***************************
  Subcatchment Runoff Summary
  ***************************
  
  --------------------------------------------------------------------------------------------------------
                            Total      Total      Total      Total      Total       Total     Peak  Runoff
                           Precip      Runon       Evap      Infil     Runoff      Runoff   Runoff   Coeff
  Subcatchment                 in         in         in         in         in    10^6 gal      CFS
  --------------------------------------------------------------------------------------------------------
  S1                         1.52       0.00       0.00       0.76       0.73        1.38    14.35   0.476
  
  
  ******************
  Node Depth Summary
  ******************
  
  ---------------------------------------------------------------------------------
                                 Average  Maximum  Maximum  Time of Max    Reported
                                   Depth    Depth      HGL   Occurrence   Max Depth
  Node                 Type         Feet     Feet     Feet  days hr:min        Feet
  ---------------------------------------------------------------------------------
  J1                   JUNCTION     0.52     1.55    97.55     0  06:01        1.55
  J2                   JUNCTION     0.74     1.79    91.79     0  07:09        1.72
  J3                   JUNCTION     0.84     1.95    89.95     0  07:12        1.84
  Out1                 OUTFALL      0.43     0.77    87.77     0  09:36        0.77
  St1                  STORAGE      2.30     4.08    94.08     0  09:35        4.08
  
  
  *******************
  Node Inflow Summary
  *******************
  
  -------------------------------------------------------------------------------------------------
                                  Maximum  Maximum                  Lateral       Total        Flow
                                  Lateral    Total  Time of Max      Inflow      Inflow     Balance
                                   Inflow   Inflow   Occurrence      Volume      Volume       Error
  Node                 Type           CFS      CFS  days hr:min    10^6 gal    10^6 gal     Percent
  -------------------------------------------------------------------------------------------------
  J1                   JUNCTION     14.35    14.35     0  06:00        1.38        1.38       0.033
  J2                   JUNCTION      0.00     3.49     0  00:00           0       0.633      -0.012
  J3                   JUNCTION      0.00     3.42     0  07:10           0       0.633       0.420
  Out1                 OUTFALL       0.00     3.22     0  09:36           0       0.631       0.000
  St1                  STORAGE       0.00    14.35     0  06:02           0         1.6      -0.000
  
  
  **********************
  Node Surcharge Summary
  **********************
  
  Surcharging occurs when water rises above the top of the highest conduit.
  ---------------------------------------------------------------------
                                               Max. Height   Min. Depth
                                   Hours       Above Crown    Below Rim
  Node                 Type      Surcharged           Feet         Feet
  ---------------------------------------------------------------------
  J2                   JUNCTION        6.65          0.790        3.210
  J3                   JUNCTION        6.79          0.949        0.051
  
  
  *********************
  Node Flooding Summary
  *********************
  
  No nodes were flooded.
  
  
  **********************
  Storage Volume Summary
  **********************
  
  --------------------------------------------------------------------------------------------------
                         Average     Avg  Evap Exfil       Maximum     Max    Time of Max    Maximum
                          Volume    Pcnt  Pcnt  Pcnt        Volume    Pcnt     Occurrence    Outflow
  Storage Unit          1000 ft3    Full  Loss  Loss      1000 ft3    Full    days hr:min        CFS
  --------------------------------------------------------------------------------------------------
  St1                     91.839      46     0     0       163.221      82       0  09:35       3.49
  
  
  ***********************
  Outfall Loading Summary
  ***********************
  
  -----------------------------------------------------------
                         Flow       Avg       Max       Total
                         Freq      Flow      Flow      Volume
  Outfall Node           Pcnt       CFS       CFS    10^6 gal
  -----------------------------------------------------------
  Out1                  68.37      2.45      3.22       0.631
  -----------------------------------------------------------
  System                68.37      2.45      3.22       0.631
  
  
  ********************
  Link Flow Summary
  ********************
  
  -----------------------------------------------------------------------------
                                 Maximum  Time of Max   Maximum    Max/    Max/
                                  |Flow|   Occurrence   |Veloc|    Full    Full
  Link                 Type          CFS  days hr:min    ft/sec    Flow   Depth
  -----------------------------------------------------------------------------
  C1                   CONDUIT     14.35     0  06:02      5.85    0.98    0.73
  C2                   CONDUIT      3.42     0  07:10      5.85    1.04    1.00
  C3                   CONDUIT      3.22     0  09:36      4.38    1.39    0.88
  R1                   ORIFICE      3.49     0  00:00                          
  
  
  ***************************
  Flow Classification Summary
  ***************************
  
  -------------------------------------------------------------------------------------
                      Adjusted    ---------- Fraction of Time in Flow Class ---------- 
                       /Actual         Up    Down  Sub   Sup   Up    Down  Norm  Inlet 
  Conduit               Length    Dry  Dry   Dry   Crit  Crit  Crit  Crit  Ltd   Ctrl  
  -------------------------------------------------------------------------------------
  C1                      1.00   0.29  0.00  0.00  0.00  0.00  0.00  0.71  0.00  0.00
  C2                      1.00   0.00  0.24  0.00  0.75  0.01  0.00  0.00  0.51  0.00
  C3                      1.00   0.00  0.00  0.00  0.97  0.03  0.00  0.00  0.00  0.00
  
  
  *************************
  Conduit Surcharge Summary
  *************************
  
  ----------------------------------------------------------------------------
                                                           Hours        Hours 
                         --------- Hours Full --------   Above Full   Capacity
  Conduit                Both Ends  Upstream  Dnstream   Normal Flow   Limited
  ----------------------------------------------------------------------------
  C2                          6.63      6.65      6.79      0.02         0.01
  C3                          0.01      6.79      0.01      6.80         0.01
  

  Analysis begun on:  Mon Mar 05 20:29:29 2018
  Analysis ended on:  Mon Mar 05 20:29:29 2018
  Total elapsed time: < 1 sec