
  EPA STORM WATER MANAGEMENT MODEL - VERSION 5.1 (Build 5.2.0.dev1)
  --------------------------------------------------------------

  
  *********************************************************
  NOTE: The summary statistics displayed in this report are
  based on results found at every computational time step,  
  not just on results from each reporting time step.
  *********************************************************
  
  ****************
  Analysis Options
  ****************
  Flow Units ............... CFS
  Process Models:
    Rainfall/Runoff ........ YES
    RDII ................... NO
    Snowmelt ............... NO
    Groundwater ............ NO
    Flow Routing ........... YES
    Ponding Allowed ........ NO
    Water Quality .......... NO
  Infiltration Method ...... MODIFIED_GREEN_AMPT
  Flow Routing Method ...... DYNWAVE
  Starting Date ............ 02/06/2018 00:00:00
  Ending Date .............. 02/06/2018 14:00:00
  Antecedent Dry Days ...... 0.0
  Report Time Step ......... 00:00:10
  Wet Time Step ............ 00:05:00
  Dry Time Step ............ 01:00:00
  Routing Time Step ........ 10.00 sec
  Variable Time Step ....... YES
  Maximum Trials ........... 8
  Number of Threads ........ 1
  Head Tolerance ........... 0.005000 ft
  
  
  ********************
  Subcatchment Results
  ********************
  
  <<< Subcatchment S1 >>>
  ---------------------------------------------------
  Date        Time        Precip.    Losses    Runoff
                            in/hr     in/hr       CFS
  ---------------------------------------------------
   02/06/2018 00:00:10      0.000     0.000    0.0000
   02/06/2018 00:00:20      0.000     0.000    0.0000
   02/06/2018 00:00:30      0.000     0.000    0.0000
   02/06/2018 00:00:40      0.000     0.000    0.0000
   02/06/2018 00:00:50      0.000     0.000    0.0000
   02/06/2018 00:01:00      0.000     0.000    0.0000
   02/06/2018 00:01:10      0.000     0.000    0.0000
   02/06/2018 00:01:20      0.000     0.000    0.0000
   02/06/2018 00:01:30      0.000     0.000    0.0000
   02/06/2018 00:01:40      0.000     0.000    0.0000
   02/06/2018 00:01:50      0.000     0.000    0.0000
   02/06/2018 00:02:00      0.000     0.000    0.0000
   02/06/2018 00:02:10      0.000     0.000    0.0000
   02/06/2018 00:02:20      0.000     0.000    0.0000
   02/06/2018 00:02:30      0.000     0.000    0.0000
   02/06/2018 00:02:40      0.000     0.000    0.0000
   02/06/2018 00:02:50      0.000     0.000    0.0000
   02/06/2018 00:03:00      0.000     0.000    0.0000
   02/06/2018 00:03:10      0.000     0.000    0.0000
   02/06/2018 00:03:20      0.000     0.000    0.0000
   02/06/2018 00:03:30      0.000     0.000    0.0000
   02/06/2018 00:03:40      0.000     0.000    0.0000
   02/06/2018 00:03:50      0.000     0.000    0.0000
   02/06/2018 00:04:00      0.000     0.000    0.0000
   02/06/2018 00:04:10      0.000     0.000    0.0000
   02/06/2018 00:04:20      0.000     0.000    0.0000
   02/06/2018 00:04:30      0.000     0.000    0.0000
   02/06/2018 00:04:40      0.000     0.000    0.0000
   02/06/2018 00:04:50      0.000     0.000    0.0000
   02/06/2018 00:05:00      0.000     0.000    0.0000
   02/06/2018 00:05:10      0.000     0.000    0.0000
   02/06/2018 00:05:20      0.000     0.000    0.0000
   02/06/2018 00:05:30      0.000     0.000    0.0000
   02/06/2018 00:05:40      0.000     0.000    0.0000
   02/06/2018 00:05:50      0.000     0.000    0.0000
   02/06/2018 00:06:00      0.000     0.000    0.0000
   02/06/2018 00:06:10      0.000     0.000    0.0000
   02/06/2018 00:06:20      0.000     0.000    0.0000
   02/06/2018 00:06:30      0.000     0.000    0.0000
   02/06/2018 00:06:40      0.000     0.000    0.0000
   02/06/2018 00:06:50      0.000     0.000    0.0000
   02/06/2018 00:07:00      0.000     0.000    0.0000
   02/06/2018 00:07:10      0.000     0.000    0.0000
   02/06/2018 00:07:20      0.000     0.000    0.0000
   02/06/2018 00:07:30      0.000     0.000    0.0000
   02/06/2018 00:07:40      0.000     0.000    0.0000
   02/06/2018 00:07:50      0.000     0.000    0.0000
   02/06/2018 00:08:00      0.000     0.000    0.0000
   02/06/2018 00:08:10      0.000     0.000    0.0000
   02/06/2018 00:08:20      0.000     0.000    0.0000
   02/06/2018 00:08:30      0.000     0.000    0.0000
   02/06/2018 00:08:40      0.000     0.000    0.0000
   02/06/2018 00:08:50      0.000     0.000    0.0000
   02/06/2018 00:09:00      0.000     0.000    0.0000
   02/06/2018 00:09:10      0.000     0.000    0.0000
   02/06/2018 00:09:20      0.000     0.000    0.0000
   02/06/2018 00:09:30      0.000     0.000    0.0000
   02/06/2018 00:09:40      0.000     0.000    0.0000
   02/06/2018 00:09:50      0.000     0.000    0.0000
   02/06/2018 00:10:00      0.000     0.000    0.0000
   02/06/2018 00:10:10      0.000     0.000    0.0000
   02/06/2018 00:10:20      0.000     0.000    0.0000
   02/06/2018 00:10:30      0.000     0.000    0.0000
   02/06/2018 00:10:40      0.000     0.000    0.0000
   02/06/2018 00:10:50      0.000     0.000    0.0000
   02/06/2018 00:11:00      0.000     0.000    0.0000
   02/06/2018 00:11:10      0.000     0.000    0.0000
   02/06/2018 00:11:20      0.000     0.000    0.0000
   02/06/2018 00:11:30      0.000     0.000    0.0000
   02/06/2018 00:11:40      0.000     0.000    0.0000
   02/06/2018 00:11:50      0.000     0.000    0.0000
   02/06/2018 00:12:00      0.000     0.000    0.0000
   02/06/2018 00:12:10      0.000     0.000    0.0000
   02/06/2018 00:12:20      0.000     0.000    0.0000
   02/06/2018 00:12:30      0.000     0.000    0.0000
   02/06/2018 00:12:40      0.000     0.000    0.0000
   02/06/2018 00:12:50      0.000     0.000    0.0000
   02/06/2018 00:13:00      0.000     0.000    0.0000
   02/06/2018 00:13:10      0.000     0.000    0.0000
   02/06/2018 00:13:20      0.000     0.000    0.0000
   02/06/2018 00:13:30      0.000     0.000    0.0000
   02/06/2018 00:13:40      0.000     0.000    0.0000
   02/06/2018 00:13:50      0.000     0.000    0.0000
   02/06/2018 00:14:00      0.000     0.000    0.0000
   02/06/2018 00:14:10      0.000     0.000    0.0000
   02/06/2018 00:14:20      0.000     0.000    0.0000
   02/06/2018 00:14:30      0.000     0.000    0.0000
   02/06/2018 00:14:40      0.000     0.000    0.0000
   02/06/2018 00:14:50      0.000     0.000    0.0000
   02/06/2018 00:15:00      0.000     0.000    0.0000
   02/06/2018 00:15:10      0.000     0.000    0.0000
   02/06/2018 00:15:20      0.000     0.000    0.0000
   02/06/2018 00:15:30      0.000     0.000    0.0000
   02/06/2018 00:15:40      0.000     0.000    0.0000
   02/06/2018 00:15:50      0.000     0.000    0.0000
   02/06/2018 00:16:00      0.000     0.000    0.0000
   02/06/2018 00:16:10      0.000     0.000    0.0000
   02/06/2018 00:16:20      0.000     0.000    0.0000
   02/06/2018 00:16:30      0.000     0.000    0.0000
   02/06/2018 00:16:40      0.000     0.000    0.0000
   02/06/2018 00:16:50      0.000     0.000    0.0000
   02/06/2018 00:17:00      0.000     0.000    0.0000
   02/06/2018 00:17:10      0.000     0.000    0.0000
   02/06/2018 00:17:20      0.000     0.000    0.0000
   02/06/2018 00:17:30      0.000     0.000    0.0000
   02/06/2018 00:17:40      0.000     0.000    0.0000
   02/06/2018 00:17:50      0.000     0.000    0.0000
   02/06/2018 00:18:00      0.000     0.000    0.0000
   02/06/2018 00:18:10      0.000     0.000    0.0000
   02/06/2018 00:18:20      0.000     0.000    0.0000
   02/06/2018 00:18:30      0.000     0.000    0.0000
   02/06/2018 00:18:40      0.000     0.000    0.0000
   02/06/2018 00:18:50      0.000     0.000    0.0000
   02/06/2018 00:19:00      0.000     0.000    0.0000
   02/06/2018 00:19:10      0.000     0.000    0.0000
   02/06/2018 00:19:20      0.000     0.000    0.0000
   02/06/2018 00:19:30      0.000     0.000    0.0000
   02/06/2018 00:19:40      0.000     0.000    0.0000
   02/06/2018 00:19:50      0.000     0.000    0.0000
   02/06/2018 00:20:00      0.000     0.000    0.0000
   02/06/2018 00:20:10      0.000     0.000    0.0000
   02/06/2018 00:20:20      0.000     0.000    0.0000
   02/06/2018 00:20:30      0.000     0.000    0.0000
   02/06/2018 00:20:40      0.000     0.000    0.0000
   02/06/2018 00:20:50      0.000     0.000    0.0000
   02/06/2018 00:21:00      0.000     0.000    0.0000
   02/06/2018 00:21:10      0.000     0.000    0.0000
   02/06/2018 00:21:20      0.000     0.000    0.0000
   02/06/2018 00:21:30      0.000     0.000    0.0000
   02/06/2018 00:21:40      0.000     0.000    0.0000
   02/06/2018 00:21:50      0.000     0.000    0.0000
   02/06/2018 00:22:00      0.000     0.000    0.0000
   02/06/2018 00:22:10      0.000     0.000    0.0000
   02/06/2018 00:22:20      0.000     0.000    0.0000
   02/06/2018 00:22:30      0.000     0.000    0.0000
   02/06/2018 00:22:40      0.000     0.000    0.0000
   02/06/2018 00:22:50      0.000     0.000    0.0000
   02/06/2018 00:23:00      0.000     0.000    0.0000
   02/06/2018 00:23:10      0.000     0.000    0.0000
   02/06/2018 00:23:20      0.000     0.000    0.0000
   02/06/2018 00:23:30      0.000     0.000    0.0000
   02/06/2018 00:23:40      0.000     0.000    0.0000
   02/06/2018 00:23:50      0.000     0.000    0.0000
   02/06/2018 00:24:00      0.000     0.000    0.0000
   02/06/2018 00:24:10      0.000     0.000    0.0000
   02/06/2018 00:24:20      0.000     0.000    0.0000
   02/06/2018 00:24:30      0.000     0.000    0.0000
   02/06/2018 00:24:40      0.000     0.000    0.0000
   02/06/2018 00:24:50      0.000     0.000    0.0000
   02/06/2018 00:25:00      0.000     0.000    0.0000
   02/06/2018 00:25:10      0.000     0.000    0.0000
   02/06/2018 00:25:20      0.000     0.000    0.0000
   02/06/2018 00:25:30      0.000     0.000    0.0000
   02/06/2018 00:25:40      0.000     0.000    0.0000
   02/06/2018 00:25:50      0.000     0.000    0.0000
   02/06/2018 00:26:00      0.000     0.000    0.0000
   02/06/2018 00:26:10      0.000     0.000    0.0000
   02/06/2018 00:26:20      0.000     0.000    0.0000
   02/06/2018 00:26:30      0.000     0.000    0.0000
   02/06/2018 00:26:40      0.000     0.000    0.0000
   02/06/2018 00:26:50      0.000     0.000    0.0000
   02/06/2018 00:27:00      0.000     0.000    0.0000
   02/06/2018 00:27:10      0.000     0.000    0.0000
   02/06/2018 00:27:20      0.000     0.000    0.0000
   02/06/2018 00:27:30      0.000     0.000    0.0000
   02/06/2018 00:27:40      0.000     0.000    0.0000
   02/06/2018 00:27:50      0.000     0.000    0.0000
   02/06/2018 00:28:00      0.000     0.000    0.0000
   02/06/2018 00:28:10      0.000     0.000    0.0000
   02/06/2018 00:28:20      0.000     0.000    0.0000
   02/06/2018 00:28:30      0.000     0.000    0.0000
   02/06/2018 00:28:40      0.000     0.000    0.0000
   02/06/2018 00:28:50      0.000     0.000    0.0000
   02/06/2018 00:29:00      0.000     0.000    0.0000
   02/06/2018 00:29:10      0.000     0.000    0.0000
   02/06/2018 00:29:20      0.000     0.000    0.0000
   02/06/2018 00:29:30      0.000     0.000    0.0000
   02/06/2018 00:29:40      0.000     0.000    0.0000
   02/06/2018 00:29:50      0.000     0.000    0.0000
   02/06/2018 00:30:00      0.000     0.000    0.0000
   02/06/2018 00:30:10      0.000     0.000    0.0000
   02/06/2018 00:30:20      0.000     0.000    0.0000
   02/06/2018 00:30:30      0.000     0.000    0.0000
   02/06/2018 00:30:40      0.000     0.000    0.0000
   02/06/2018 00:30:50      0.000     0.000    0.0000
   02/06/2018 00:31:00      0.000     0.000    0.0000
   02/06/2018 00:31:10      0.000     0.000    0.0000
   02/06/2018 00:31:20      0.000     0.000    0.0000
   02/06/2018 00:31:30      0.000     0.000    0.0000
   02/06/2018 00:31:40      0.000     0.000    0.0000
   02/06/2018 00:31:50      0.000     0.000    0.0000
   02/06/2018 00:32:00      0.000     0.000    0.0000
   02/06/2018 00:32:10      0.000     0.000    0.0000
   02/06/2018 00:32:20      0.000     0.000    0.0000
   02/06/2018 00:32:30      0.000     0.000    0.0000
   02/06/2018 00:32:40      0.000     0.000    0.0000
   02/06/2018 00:32:50      0.000     0.000    0.0000
   02/06/2018 00:33:00      0.000     0.000    0.0000
   02/06/2018 00:33:10      0.000     0.000    0.0000
   02/06/2018 00:33:20      0.000     0.000    0.0000
   02/06/2018 00:33:30      0.000     0.000    0.0000
   02/06/2018 00:33:40      0.000     0.000    0.0000
   02/06/2018 00:33:50      0.000     0.000    0.0000
   02/06/2018 00:34:00      0.000     0.000    0.0000
   02/06/2018 00:34:10      0.000     0.000    0.0000
   02/06/2018 00:34:20      0.000     0.000    0.0000
   02/06/2018 00:34:30      0.000     0.000    0.0000
   02/06/2018 00:34:40      0.000     0.000    0.0000
   02/06/2018 00:34:50      0.000     0.000    0.0000
   02/06/2018 00:35:00      0.000     0.000    0.0000
   02/06/2018 00:35:10      0.000     0.000    0.0000
   02/06/2018 00:35:20      0.000     0.000    0.0000
   02/06/2018 00:35:30      0.000     0.000    0.0000
   02/06/2018 00:35:40      0.000     0.000    0.0000
   02/06/2018 00:35:50      0.000     0.000    0.0000
   02/06/2018 00:36:00      0.000     0.000    0.0000
   02/06/2018 00:36:10      0.000     0.000    0.0000
   02/06/2018 00:36:20      0.000     0.000    0.0000
   02/06/2018 00:36:30      0.000     0.000    0.0000
   02/06/2018 00:36:40      0.000     0.000    0.0000
   02/06/2018 00:36:50      0.000     0.000    0.0000
   02/06/2018 00:37:00      0.000     0.000    0.0000
   02/06/2018 00:37:10      0.000     0.000    0.0000
   02/06/2018 00:37:20      0.000     0.000    0.0000
   02/06/2018 00:37:30      0.000     0.000    0.0000
   02/06/2018 00:37:40      0.000     0.000    0.0000
   02/06/2018 00:37:50      0.000     0.000    0.0000
   02/06/2018 00:38:00      0.000     0.000    0.0000
   02/06/2018 00:38:10      0.000     0.000    0.0000
   02/06/2018 00:38:20      0.000     0.000    0.0000
   02/06/2018 00:38:30      0.000     0.000    0.0000
   02/06/2018 00:38:40      0.000     0.000    0.0000
   02/06/2018 00:38:50      0.000     0.000    0.0000
   02/06/2018 00:39:00      0.000     0.000    0.0000
   02/06/2018 00:39:10      0.000     0.000    0.0000
   02/06/2018 00:39:20      0.000     0.000    0.0000
   02/06/2018 00:39:30      0.000     0.000    0.0000
   02/06/2018 00:39:40      0.000     0.000    0.0000
   02/06/2018 00:39:50      0.000     0.000    0.0000
   02/06/2018 00:40:00      0.000     0.000    0.0000
   02/06/2018 00:40:10      0.000     0.000    0.0000
   02/06/2018 00:40:20      0.000     0.000    0.0000
   02/06/2018 00:40:30      0.000     0.000    0.0000
   02/06/2018 00:40:40      0.000     0.000    0.0000
   02/06/2018 00:40:50      0.000     0.000    0.0000
   02/06/2018 00:41:00      0.000     0.000    0.0000
   02/06/2018 00:41:10      0.000     0.000    0.0000
   02/06/2018 00:41:20      0.000     0.000    0.0000
   02/06/2018 00:41:30      0.000     0.000    0.0000
   02/06/2018 00:41:40      0.000     0.000    0.0000
   02/06/2018 00:41:50      0.000     0.000    0.0000
   02/06/2018 00:42:00      0.000     0.000    0.0000
   02/06/2018 00:42:10      0.000     0.000    0.0000
   02/06/2018 00:42:20      0.000     0.000    0.0000
   02/06/2018 00:42:30      0.000     0.000    0.0000
   02/06/2018 00:42:40      0.000     0.000    0.0000
   02/06/2018 00:42:50      0.000     0.000    0.0000
   02/06/2018 00:43:00      0.000     0.000    0.0000
   02/06/2018 00:43:10      0.000     0.000    0.0000
   02/06/2018 00:43:20      0.000     0.000    0.0000
   02/06/2018 00:43:30      0.000     0.000    0.0000
   02/06/2018 00:43:40      0.000     0.000    0.0000
   02/06/2018 00:43:50      0.000     0.000    0.0000
   02/06/2018 00:44:00      0.000     0.000    0.0000
   02/06/2018 00:44:10      0.000     0.000    0.0000
   02/06/2018 00:44:20      0.000     0.000    0.0000
   02/06/2018 00:44:30      0.000     0.000    0.0000
   02/06/2018 00:44:40      0.000     0.000    0.0000
   02/06/2018 00:44:50      0.000     0.000    0.0000
   02/06/2018 00:45:00      0.000     0.000    0.0000
   02/06/2018 00:45:10      0.000     0.000    0.0000
   02/06/2018 00:45:20      0.000     0.000    0.0000
   02/06/2018 00:45:30      0.000     0.000    0.0000
   02/06/2018 00:45:40      0.000     0.000    0.0000
   02/06/2018 00:45:50      0.000     0.000    0.0000
   02/06/2018 00:46:00      0.000     0.000    0.0000
   02/06/2018 00:46:10      0.000     0.000    0.0000
   02/06/2018 00:46:20      0.000     0.000    0.0000
   02/06/2018 00:46:30      0.000     0.000    0.0000
   02/06/2018 00:46:40      0.000     0.000    0.0000
   02/06/2018 00:46:50      0.000     0.000    0.0000
   02/06/2018 00:47:00      0.000     0.000    0.0000
   02/06/2018 00:47:10      0.000     0.000    0.0000
   02/06/2018 00:47:20      0.000     0.000    0.0000
   02/06/2018 00:47:30      0.000     0.000    0.0000
   02/06/2018 00:47:40      0.000     0.000    0.0000
   02/06/2018 00:47:50      0.000     0.000    0.0000
   02/06/2018 00:48:00      0.000     0.000    0.0000
   02/06/2018 00:48:10      0.000     0.000    0.0000
   02/06/2018 00:48:20      0.000     0.000    0.0000
   02/06/2018 00:48:30      0.000     0.000    0.0000
   02/06/2018 00:48:40      0.000     0.000    0.0000
   02/06/2018 00:48:50      0.000     0.000    0.0000
   02/06/2018 00:49:00      0.000     0.000    0.0000
   02/06/2018 00:49:10      0.000     0.000    0.0000
   02/06/2018 00:49:20      0.000     0.000    0.0000
   02/06/2018 00:49:30      0.000     0.000    0.0000
   02/06/2018 00:49:40      0.000     0.000    0.0000
   02/06/2018 00:49:50      0.000     0.000    0.0000
   02/06/2018 00:50:00      0.000     0.000    0.0000
   02/06/2018 00:50:10      0.000     0.000    0.0000
   02/06/2018 00:50:20      0.000     0.000    0.0000
   02/06/2018 00:50:30      0.000     0.000    0.0000
   02/06/2018 00:50:40      0.000     0.000    0.0000
   02/06/2018 00:50:50      0.000     0.000    0.0000
   02/06/2018 00:51:00      0.000     0.000    0.0000
   02/06/2018 00:51:10      0.000     0.000    0.0000
   02/06/2018 00:51:20      0.000     0.000    0.0000
   02/06/2018 00:51:30      0.000     0.000    0.0000
   02/06/2018 00:51:40      0.000     0.000    0.0000
   02/06/2018 00:51:50      0.000     0.000    0.0000
   02/06/2018 00:52:00      0.000     0.000    0.0000
   02/06/2018 00:52:10      0.000     0.000    0.0000
   02/06/2018 00:52:20      0.000     0.000    0.0000
   02/06/2018 00:52:30      0.000     0.000    0.0000
   02/06/2018 00:52:40      0.000     0.000    0.0000
   02/06/2018 00:52:50      0.000     0.000    0.0000
   02/06/2018 00:53:00      0.000     0.000    0.0000
   02/06/2018 00:53:10      0.000     0.000    0.0000
   02/06/2018 00:53:20      0.000     0.000    0.0000
   02/06/2018 00:53:30      0.000     0.000    0.0000
   02/06/2018 00:53:40      0.000     0.000    0.0000
   02/06/2018 00:53:50      0.000     0.000    0.0000
   02/06/2018 00:54:00      0.000     0.000    0.0000
   02/06/2018 00:54:10      0.000     0.000    0.0000
   02/06/2018 00:54:20      0.000     0.000    0.0000
   02/06/2018 00:54:30      0.000     0.000    0.0000
   02/06/2018 00:54:40      0.000     0.000    0.0000
   02/06/2018 00:54:50      0.000     0.000    0.0000
   02/06/2018 00:55:00      0.000     0.000    0.0000
   02/06/2018 00:55:10      0.000     0.000    0.0000
   02/06/2018 00:55:20      0.000     0.000    0.0000
   02/06/2018 00:55:30      0.000     0.000    0.0000
   02/06/2018 00:55:40      0.000     0.000    0.0000
   02/06/2018 00:55:50      0.000     0.000    0.0000
   02/06/2018 00:56:00      0.000     0.000    0.0000
   02/06/2018 00:56:10      0.000     0.000    0.0000
   02/06/2018 00:56:20      0.000     0.000    0.0000
   02/06/2018 00:56:30      0.000     0.000    0.0000
   02/06/2018 00:56:40      0.000     0.000    0.0000
   02/06/2018 00:56:50      0.000     0.000    0.0000
   02/06/2018 00:57:00      0.000     0.000    0.0000
   02/06/2018 00:57:10      0.000     0.000    0.0000
   02/06/2018 00:57:20      0.000     0.000    0.0000
   02/06/2018 00:57:30      0.000     0.000    0.0000
   02/06/2018 00:57:40      0.000     0.000    0.0000
   02/06/2018 00:57:50      0.000     0.000    0.0000
   02/06/2018 00:58:00      0.000     0.000    0.0000
   02/06/2018 00:58:10      0.000     0.000    0.0000
   02/06/2018 00:58:20      0.000     0.000    0.0000
   02/06/2018 00:58:30      0.000     0.000    0.0000
   02/06/2018 00:58:40      0.000     0.000    0.0000
   02/06/2018 00:58:50      0.000     0.000    0.0000
   02/06/2018 00:59:00      0.000     0.000    0.0000
   02/06/2018 00:59:10      0.000     0.000    0.0000
   02/06/2018 00:59:20      0.000     0.000    0.0000
   02/06/2018 00:59:30      0.000     0.000    0.0000
   02/06/2018 00:59:40      0.000     0.000    0.0000
   02/06/2018 00:59:50      0.000     0.000    0.0000
   02/06/2018 01:00:00      0.000     0.000    0.0000
   02/06/2018 01:00:10      0.000     0.000    0.0000
   02/06/2018 01:00:20      0.000     0.000    0.0000
   02/06/2018 01:00:30      0.000     0.000    0.0000
   02/06/2018 01:00:40      0.000     0.000    0.0000
   02/06/2018 01:00:50      0.000     0.000    0.0000
   02/06/2018 01:01:00      0.000     0.000    0.0000
   02/06/2018 01:01:10      0.000     0.000    0.0000
   02/06/2018 01:01:20      0.000     0.000    0.0000
   02/06/2018 01:01:30      0.000     0.000    0.0000
   02/06/2018 01:01:40      0.000     0.000    0.0000
   02/06/2018 01:01:50      0.000     0.000    0.0000
   02/06/2018 01:02:00      0.000     0.000    0.0000
   02/06/2018 01:02:10      0.000     0.000    0.0000
   02/06/2018 01:02:20      0.000     0.000    0.0000
   02/06/2018 01:02:30      0.000     0.000    0.0000
   02/06/2018 01:02:40      0.000     0.000    0.0000
   02/06/2018 01:02:50      0.000     0.000    0.0000
   02/06/2018 01:03:00      0.000     0.000    0.0000
   02/06/2018 01:03:10      0.000     0.000    0.0000
   02/06/2018 01:03:20      0.000     0.000    0.0000
   02/06/2018 01:03:30      0.000     0.000    0.0000
   02/06/2018 01:03:40      0.000     0.000    0.0000
   02/06/2018 01:03:50      0.000     0.000    0.0000
   02/06/2018 01:04:00      0.000     0.000    0.0000
   02/06/2018 01:04:10      0.000     0.000    0.0000
   02/06/2018 01:04:20      0.000     0.000    0.0000
   02/06/2018 01:04:30      0.000     0.000    0.0000
   02/06/2018 01:04:40      0.000     0.000    0.0000
   02/06/2018 01:04:50      0.000     0.000    0.0000
   02/06/2018 01:05:00      0.000     0.000    0.0000
   02/06/2018 01:05:10      0.000     0.000    0.0000
   02/06/2018 01:05:20      0.000     0.000    0.0000
   02/06/2018 01:05:30      0.000     0.000    0.0000
   02/06/2018 01:05:40      0.000     0.000    0.0000
   02/06/2018 01:05:50      0.000     0.000    0.0000
   02/06/2018 01:06:00      0.000     0.000    0.0000
   02/06/2018 01:06:10      0.000     0.000    0.0000
   02/06/2018 01:06:20      0.000     0.000    0.0000
   02/06/2018 01:06:30      0.000     0.000    0.0000
   02/06/2018 01:06:40      0.000     0.000    0.0000
   02/06/2018 01:06:50      0.000     0.000    0.0000
   02/06/2018 01:07:00      0.000     0.000    0.0000
   02/06/2018 01:07:10      0.000     0.000    0.0000
   02/06/2018 01:07:20      0.000     0.000    0.0000
   02/06/2018 01:07:30      0.000     0.000    0.0000
   02/06/2018 01:07:40      0.000     0.000    0.0000
   02/06/2018 01:07:50      0.000     0.000    0.0000
   02/06/2018 01:08:00      0.000     0.000    0.0000
   02/06/2018 01:08:10      0.000     0.000    0.0000
   02/06/2018 01:08:20      0.000     0.000    0.0000
   02/06/2018 01:08:30      0.000     0.000    0.0000
   02/06/2018 01:08:40      0.000     0.000    0.0000
   02/06/2018 01:08:50      0.000     0.000    0.0000
   02/06/2018 01:09:00      0.000     0.000    0.0000
   02/06/2018 01:09:10      0.000     0.000    0.0000
   02/06/2018 01:09:20      0.000     0.000    0.0000
   02/06/2018 01:09:30      0.000     0.000    0.0000
   02/06/2018 01:09:40      0.000     0.000    0.0000
   02/06/2018 01:09:50      0.000     0.000    0.0000
   02/06/2018 01:10:00      0.000     0.000    0.0000
   02/06/2018 01:10:10      0.000     0.000    0.0000
   02/06/2018 01:10:20      0.000     0.000    0.0000
   02/06/2018 01:10:30      0.000     0.000    0.0000
   02/06/2018 01:10:40      0.000     0.000    0.0000
   02/06/2018 01:10:50      0.000     0.000    0.0000
   02/06/2018 01:11:00      0.000     0.000    0.0000
   02/06/2018 01:11:10      0.000     0.000    0.0000
   02/06/2018 01:11:20      0.000     0.000    0.0000
   02/06/2018 01:11:30      0.000     0.000    0.0000
   02/06/2018 01:11:40      0.000     0.000    0.0000
   02/06/2018 01:11:50      0.000     0.000    0.0000
   02/06/2018 01:12:00      0.000     0.000    0.0000
   02/06/2018 01:12:10      0.000     0.000    0.0000
   02/06/2018 01:12:20      0.000     0.000    0.0000
   02/06/2018 01:12:30      0.000     0.000    0.0000
   02/06/2018 01:12:40      0.000     0.000    0.0000
   02/06/2018 01:12:50      0.000     0.000    0.0000
   02/06/2018 01:13:00      0.000     0.000    0.0000
   02/06/2018 01:13:10      0.000     0.000    0.0000
   02/06/2018 01:13:20      0.000     0.000    0.0000
   02/06/2018 01:13:30      0.000     0.000    0.0000
   02/06/2018 01:13:40      0.000     0.000    0.0000
   02/06/2018 01:13:50      0.000     0.000    0.0000
   02/06/2018 01:14:00      0.000     0.000    0.0000
   02/06/2018 01:14:10      0.000     0.000    0.0000
   02/06/2018 01:14:20      0.000     0.000    0.0000
   02/06/2018 01:14:30      0.000     0.000    0.0000
   02/06/2018 01:14:40      0.000     0.000    0.0000
   02/06/2018 01:14:50      0.000     0.000    0.0000
   02/06/2018 01:15:00      0.000     0.000    0.0000
   02/06/2018 01:15:10      0.000     0.000    0.0000
   02/06/2018 01:15:20      0.000     0.000    0.0000
   02/06/2018 01:15:30      0.000     0.000    0.0000
   02/06/2018 01:15:40      0.000     0.000    0.0000
   02/06/2018 01:15:50      0.000     0.000    0.0000
   02/06/2018 01:16:00      0.000     0.000    0.0000
   02/06/2018 01:16:10      0.000     0.000    0.0000
   02/06/2018 01:16:20      0.000     0.000    0.0000
   02/06/2018 01:16:30      0.000     0.000    0.0000
   02/06/2018 01:16:40      0.000     0.000    0.0000
   02/06/2018 01:16:50      0.000     0.000    0.0000
   02/06/2018 01:17:00      0.000     0.000    0.0000
   02/06/2018 01:17:10      0.000     0.000    0.0000
   02/06/2018 01:17:20      0.000     0.000    0.0000
   02/06/2018 01:17:30      0.000     0.000    0.0000
   02/06/2018 01:17:40      0.000     0.000    0.0000
   02/06/2018 01:17:50      0.000     0.000    0.0000
   02/06/2018 01:18:00      0.000     0.000    0.0000
   02/06/2018 01:18:10      0.000     0.000    0.0000
   02/06/2018 01:18:20      0.000     0.000    0.0000
   02/06/2018 01:18:30      0.000     0.000    0.0000
   02/06/2018 01:18:40      0.000     0.000    0.0000
   02/06/2018 01:18:50      0.000     0.000    0.0000
   02/06/2018 01:19:00      0.000     0.000    0.0000
   02/06/2018 01:19:10      0.000     0.000    0.0000
   02/06/2018 01:19:20      0.000     0.000    0.0000
   02/06/2018 01:19:30      0.000     0.000    0.0000
   02/06/2018 01:19:40      0.000     0.000    0.0000
   02/06/2018 01:19:50      0.000     0.000    0.0000
   02/06/2018 01:20:00      0.000     0.000    0.0000
   02/06/2018 01:20:10      0.000     0.000    0.0000
   02/06/2018 01:20:20      0.000     0.000    0.0000
   02/06/2018 01:20:30      0.000     0.000    0.0000
   02/06/2018 01:20:40      0.000     0.000    0.0000
   02/06/2018 01:20:50      0.000     0.000    0.0000
   02/06/2018 01:21:00      0.000     0.000    0.0000
   02/06/2018 01:21:10      0.000     0.000    0.0000
   02/06/2018 01:21:20      0.000     0.000    0.0000
   02/06/2018 01:21:30      0.000     0.000    0.0000
   02/06/2018 01:21:40      0.000     0.000    0.0000
   02/06/2018 01:21:50      0.000     0.000    0.0000
   02/06/2018 01:22:00      0.000     0.000    0.0000
   02/06/2018 01:22:10      0.000     0.000    0.0000
   02/06/2018 01:22:20      0.000     0.000    0.0000
   02/06/2018 01:22:30      0.000     0.000    0.0000
   02/06/2018 01:22:40      0.000     0.000    0.0000
   02/06/2018 01:22:50      0.000     0.000    0.0000
   02/06/2018 01:23:00      0.000     0.000    0.0000
   02/06/2018 01:23:10      0.000     0.000    0.0000
   02/06/2018 01:23:20      0.000     0.000    0.0000
   02/06/2018 01:23:30      0.000     0.000    0.0000
   02/06/2018 01:23:40      0.000     0.000    0.0000
   02/06/2018 01:23:50      0.000     0.000    0.0000
   02/06/2018 01:24:00      0.000     0.000    0.0000
   02/06/2018 01:24:10      0.000     0.000    0.0000
   02/06/2018 01:24:20      0.000     0.000    0.0000
   02/06/2018 01:24:30      0.000     0.000    0.0000
   02/06/2018 01:24:40      0.000     0.000    0.0000
   02/06/2018 01:24:50      0.000     0.000    0.0000
   02/06/2018 01:25:00      0.000     0.000    0.0000
   02/06/2018 01:25:10      0.000     0.000    0.0000
   02/06/2018 01:25:20      0.000     0.000    0.0000
   02/06/2018 01:25:30      0.000     0.000    0.0000
   02/06/2018 01:25:40      0.000     0.000    0.0000
   02/06/2018 01:25:50      0.000     0.000    0.0000
   02/06/2018 01:26:00      0.000     0.000    0.0000
   02/06/2018 01:26:10      0.000     0.000    0.0000
   02/06/2018 01:26:20      0.000     0.000    0.0000
   02/06/2018 01:26:30      0.000     0.000    0.0000
   02/06/2018 01:26:40      0.000     0.000    0.0000
   02/06/2018 01:26:50      0.000     0.000    0.0000
   02/06/2018 01:27:00      0.000     0.000    0.0000
   02/06/2018 01:27:10      0.000     0.000    0.0000
   02/06/2018 01:27:20      0.000     0.000    0.0000
   02/06/2018 01:27:30      0.000     0.000    0.0000
   02/06/2018 01:27:40      0.000     0.000    0.0000
   02/06/2018 01:27:50      0.000     0.000    0.0000
   02/06/2018 01:28:00      0.000     0.000    0.0000
   02/06/2018 01:28:10      0.000     0.000    0.0000
   02/06/2018 01:28:20      0.000     0.000    0.0000
   02/06/2018 01:28:30      0.000     0.000    0.0000
   02/06/2018 01:28:40      0.000     0.000    0.0000
   02/06/2018 01:28:50      0.000     0.000    0.0000
   02/06/2018 01:29:00      0.000     0.000    0.0000
   02/06/2018 01:29:10      0.000     0.000    0.0000
   02/06/2018 01:29:20      0.000     0.000    0.0000
   02/06/2018 01:29:30      0.000     0.000    0.0000
   02/06/2018 01:29:40      0.000     0.000    0.0000
   02/06/2018 01:29:50      0.000     0.000    0.0000
   02/06/2018 01:30:00      0.000     0.000    0.0000
   02/06/2018 01:30:10      0.000     0.000    0.0000
   02/06/2018 01:30:20      0.000     0.000    0.0000
   02/06/2018 01:30:30      0.000     0.000    0.0000
   02/06/2018 01:30:40      0.000     0.000    0.0000
   02/06/2018 01:30:50      0.000     0.000    0.0000
   02/06/2018 01:31:00      0.000     0.000    0.0000
   02/06/2018 01:31:10      0.000     0.000    0.0000
   02/06/2018 01:31:20      0.000     0.000    0.0000
   02/06/2018 01:31:30      0.000     0.000    0.0000
   02/06/2018 01:31:40      0.000     0.000    0.0000
   02/06/2018 01:31:50      0.000     0.000    0.0000
   02/06/2018 01:32:00      0.000     0.000    0.0000
   02/06/2018 01:32:10      0.000     0.000    0.0000
   02/06/2018 01:32:20      0.000     0.000    0.0000
   02/06/2018 01:32:30      0.000     0.000    0.0000
   02/06/2018 01:32:40      0.000     0.000    0.0000
   02/06/2018 01:32:50      0.000     0.000    0.0000
   02/06/2018 01:33:00      0.000     0.000    0.0000
   02/06/2018 01:33:10      0.000     0.000    0.0000
   02/06/2018 01:33:20      0.000     0.000    0.0000
   02/06/2018 01:33:30      0.000     0.000    0.0000
   02/06/2018 01:33:40      0.000     0.000    0.0000
   02/06/2018 01:33:50      0.000     0.000    0.0000
   02/06/2018 01:34:00      0.000     0.000    0.0000
   02/06/2018 01:34:10      0.000     0.000    0.0000
   02/06/2018 01:34:20      0.000     0.000    0.0000
   02/06/2018 01:34:30      0.000     0.000    0.0000
   02/06/2018 01:34:40      0.000     0.000    0.0000
   02/06/2018 01:34:50      0.000     0.000    0.0000
   02/06/2018 01:35:00      0.000     0.000    0.0000
   02/06/2018 01:35:10      0.000     0.000    0.0000
   02/06/2018 01:35:20      0.000     0.000    0.0000
   02/06/2018 01:35:30      0.000     0.000    0.0000
   02/06/2018 01:35:40      0.000     0.000    0.0000
   02/06/2018 01:35:50      0.000     0.000    0.0000
   02/06/2018 01:36:00      0.000     0.000    0.0000
   02/06/2018 01:36:10      0.000     0.000    0.0000
   02/06/2018 01:36:20      0.000     0.000    0.0000
   02/06/2018 01:36:30      0.000     0.000    0.0000
   02/06/2018 01:36:40      0.000     0.000    0.0000
   02/06/2018 01:36:50      0.000     0.000    0.0000
   02/06/2018 01:37:00      0.000     0.000    0.0000
   02/06/2018 01:37:10      0.000     0.000    0.0000
   02/06/2018 01:37:20      0.000     0.000    0.0000
   02/06/2018 01:37:30      0.000     0.000    0.0000
   02/06/2018 01:37:40      0.000     0.000    0.0000
   02/06/2018 01:37:50      0.000     0.000    0.0000
   02/06/2018 01:38:00      0.000     0.000    0.0000
   02/06/2018 01:38:10      0.000     0.000    0.0000
   02/06/2018 01:38:20      0.000     0.000    0.0000
   02/06/2018 01:38:30      0.000     0.000    0.0000
   02/06/2018 01:38:40      0.000     0.000    0.0000
   02/06/2018 01:38:50      0.000     0.000    0.0000
   02/06/2018 01:39:00      0.000     0.000    0.0000
   02/06/2018 01:39:10      0.000     0.000    0.0000
   02/06/2018 01:39:20      0.000     0.000    0.0000
   02/06/2018 01:39:30      0.000     0.000    0.0000
   02/06/2018 01:39:40      0.000     0.000    0.0000
   02/06/2018 01:39:50      0.000     0.000    0.0000
   02/06/2018 01:40:00      0.000     0.000    0.0000
   02/06/2018 01:40:10      0.000     0.000    0.0000
   02/06/2018 01:40:20      0.000     0.000    0.0000
   02/06/2018 01:40:30      0.000     0.000    0.0000
   02/06/2018 01:40:40      0.000     0.000    0.0000
   02/06/2018 01:40:50      0.000     0.000    0.0000
   02/06/2018 01:41:00      0.000     0.000    0.0000
   02/06/2018 01:41:10      0.000     0.000    0.0000
   02/06/2018 01:41:20      0.000     0.000    0.0000
   02/06/2018 01:41:30      0.000     0.000    0.0000
   02/06/2018 01:41:40      0.000     0.000    0.0000
   02/06/2018 01:41:50      0.000     0.000    0.0000
   02/06/2018 01:42:00      0.000     0.000    0.0000
   02/06/2018 01:42:10      0.000     0.000    0.0000
   02/06/2018 01:42:20      0.000     0.000    0.0000
   02/06/2018 01:42:30      0.000     0.000    0.0000
   02/06/2018 01:42:40      0.000     0.000    0.0000
   02/06/2018 01:42:50      0.000     0.000    0.0000
   02/06/2018 01:43:00      0.000     0.000    0.0000
   02/06/2018 01:43:10      0.000     0.000    0.0000
   02/06/2018 01:43:20      0.000     0.000    0.0000
   02/06/2018 01:43:30      0.000     0.000    0.0000
   02/06/2018 01:43:40      0.000     0.000    0.0000
   02/06/2018 01:43:50      0.000     0.000    0.0000
   02/06/2018 01:44:00      0.000     0.000    0.0000
   02/06/2018 01:44:10      0.000     0.000    0.0000
   02/06/2018 01:44:20      0.000     0.000    0.0000
   02/06/2018 01:44:30      0.000     0.000    0.0000
   02/06/2018 01:44:40      0.000     0.000    0.0000
   02/06/2018 01:44:50      0.000     0.000    0.0000
   02/06/2018 01:45:00      0.000     0.000    0.0000
   02/06/2018 01:45:10      0.000     0.000    0.0000
   02/06/2018 01:45:20      0.000     0.000    0.0000
   02/06/2018 01:45:30      0.000     0.000    0.0000
   02/06/2018 01:45:40      0.000     0.000    0.0000
   02/06/2018 01:45:50      0.000     0.000    0.0000
   02/06/2018 01:46:00      0.000     0.000    0.0000
   02/06/2018 01:46:10      0.000     0.000    0.0000
   02/06/2018 01:46:20      0.000     0.000    0.0000
   02/06/2018 01:46:30      0.000     0.000    0.0000
   02/06/2018 01:46:40      0.000     0.000    0.0000
   02/06/2018 01:46:50      0.000     0.000    0.0000
   02/06/2018 01:47:00      0.000     0.000    0.0000
   02/06/2018 01:47:10      0.000     0.000    0.0000
   02/06/2018 01:47:20      0.000     0.000    0.0000
   02/06/2018 01:47:30      0.000     0.000    0.0000
   02/06/2018 01:47:40      0.000     0.000    0.0000
   02/06/2018 01:47:50      0.000     0.000    0.0000
   02/06/2018 01:48:00      0.000     0.000    0.0000
   02/06/2018 01:48:10      0.000     0.000    0.0000
   02/06/2018 01:48:20      0.000     0.000    0.0000
   02/06/2018 01:48:30      0.000     0.000    0.0000
   02/06/2018 01:48:40      0.000     0.000    0.0000
   02/06/2018 01:48:50      0.000     0.000    0.0000
   02/06/2018 01:49:00      0.000     0.000    0.0000
   02/06/2018 01:49:10      0.000     0.000    0.0000
   02/06/2018 01:49:20      0.000     0.000    0.0000
   02/06/2018 01:49:30      0.000     0.000    0.0000
   02/06/2018 01:49:40      0.000     0.000    0.0000
   02/06/2018 01:49:50      0.000     0.000    0.0000
   02/06/2018 01:50:00      0.000     0.000    0.0000
   02/06/2018 01:50:10      0.000     0.000    0.0000
   02/06/2018 01:50:20      0.000     0.000    0.0000
   02/06/2018 01:50:30      0.000     0.000    0.0000
   02/06/2018 01:50:40      0.000     0.000    0.0000
   02/06/2018 01:50:50      0.000     0.000    0.0000
   02/06/2018 01:51:00      0.000     0.000    0.0000
   02/06/2018 01:51:10      0.000     0.000    0.0000
   02/06/2018 01:51:20      0.000     0.000    0.0000
   02/06/2018 01:51:30      0.000     0.000    0.0000
   02/06/2018 01:51:40      0.000     0.000    0.0000
   02/06/2018 01:51:50      0.000     0.000    0.0000
   02/06/2018 01:52:00      0.000     0.000    0.0000
   02/06/2018 01:52:10      0.000     0.000    0.0000
   02/06/2018 01:52:20      0.000     0.000    0.0000
   02/06/2018 01:52:30      0.000     0.000    0.0000
   02/06/2018 01:52:40      0.000     0.000    0.0000
   02/06/2018 01:52:50      0.000     0.000    0.0000
   02/06/2018 01:53:00      0.000     0.000    0.0000
   02/06/2018 01:53:10      0.000     0.000    0.0000
   02/06/2018 01:53:20      0.000     0.000    0.0000
   02/06/2018 01:53:30      0.000     0.000    0.0000
   02/06/2018 01:53:40      0.000     0.000    0.0000
   02/06/2018 01:53:50      0.000     0.000    0.0000
   02/06/2018 01:54:00      0.000     0.000    0.0000
   02/06/2018 01:54:10      0.000     0.000    0.0000
   02/06/2018 01:54:20      0.000     0.000    0.0000
   02/06/2018 01:54:30      0.000     0.000    0.0000
   02/06/2018 01:54:40      0.000     0.000    0.0000
   02/06/2018 01:54:50      0.000     0.000    0.0000
   02/06/2018 01:55:00      0.000     0.000    0.0000
   02/06/2018 01:55:10      0.000     0.000    0.0000
   02/06/2018 01:55:20      0.000     0.000    0.0000
   02/06/2018 01:55:30      0.000     0.000    0.0000
   02/06/2018 01:55:40      0.000     0.000    0.0000
   02/06/2018 01:55:50      0.000     0.000    0.0000
   02/06/2018 01:56:00      0.000     0.000    0.0000
   02/06/2018 01:56:10      0.000     0.000    0.0000
   02/06/2018 01:56:20      0.000     0.000    0.0000
   02/06/2018 01:56:30      0.000     0.000    0.0000
   02/06/2018 01:56:40      0.000     0.000    0.0000
   02/06/2018 01:56:50      0.000     0.000    0.0000
   02/06/2018 01:57:00      0.000     0.000    0.0000
   02/06/2018 01:57:10      0.000     0.000    0.0000
   02/06/2018 01:57:20      0.000     0.000    0.0000
   02/06/2018 01:57:30      0.000     0.000    0.0000
   02/06/2018 01:57:40      0.000     0.000    0.0000
   02/06/2018 01:57:50      0.000     0.000    0.0000
   02/06/2018 01:58:00      0.000     0.000    0.0000
   02/06/2018 01:58:10      0.000     0.000    0.0000
   02/06/2018 01:58:20      0.000     0.000    0.0000
   02/06/2018 01:58:30      0.000     0.000    0.0000
   02/06/2018 01:58:40      0.000     0.000    0.0000
   02/06/2018 01:58:50      0.000     0.000    0.0000
   02/06/2018 01:59:00      0.000     0.000    0.0000
   02/06/2018 01:59:10      0.000     0.000    0.0000
   02/06/2018 01:59:20      0.000     0.000    0.0000
   02/06/2018 01:59:30      0.000     0.000    0.0000
   02/06/2018 01:59:40      0.000     0.000    0.0000
   02/06/2018 01:59:50      0.000     0.000    0.0000
   02/06/2018 02:00:00      0.000     0.000    0.0000
   02/06/2018 02:00:10      0.000     0.000    0.0000
   02/06/2018 02:00:20      0.000     0.000    0.0000
   02/06/2018 02:00:30      0.000     0.000    0.0000
   02/06/2018 02:00:40      0.000     0.000    0.0000
   02/06/2018 02:00:50      0.000     0.000    0.0000
   02/06/2018 02:01:00      0.000     0.000    0.0000
   02/06/2018 02:01:10      0.000     0.000    0.0000
   02/06/2018 02:01:20      0.000     0.000    0.0000
   02/06/2018 02:01:30      0.000     0.000    0.0000
   02/06/2018 02:01:40      0.000     0.000    0.0000
   02/06/2018 02:01:50      0.000     0.000    0.0000
   02/06/2018 02:02:00      0.000     0.000    0.0000
   02/06/2018 02:02:10      0.000     0.000    0.0000
   02/06/2018 02:02:20      0.000     0.000    0.0000
   02/06/2018 02:02:30      0.000     0.000    0.0000
   02/06/2018 02:02:40      0.000     0.000    0.0000
   02/06/2018 02:02:50      0.000     0.000    0.0000
   02/06/2018 02:03:00      0.000     0.000    0.0000
   02/06/2018 02:03:10      0.000     0.000    0.0000
   02/06/2018 02:03:20      0.000     0.000    0.0000
   02/06/2018 02:03:30      0.000     0.000    0.0000
   02/06/2018 02:03:40      0.000     0.000    0.0000
   02/06/2018 02:03:50      0.000     0.000    0.0000
   02/06/2018 02:04:00      0.000     0.000    0.0000
   02/06/2018 02:04:10      0.000     0.000    0.0000
   02/06/2018 02:04:20      0.000     0.000    0.0000
   02/06/2018 02:04:30      0.000     0.000    0.0000
   02/06/2018 02:04:40      0.000     0.000    0.0000
   02/06/2018 02:04:50      0.000     0.000    0.0000
   02/06/2018 02:05:00      0.000     0.000    0.0000
   02/06/2018 02:05:10      0.000     0.000    0.0000
   02/06/2018 02:05:20      0.000     0.000    0.0000
   02/06/2018 02:05:30      0.000     0.000    0.0000
   02/06/2018 02:05:40      0.000     0.000    0.0000
   02/06/2018 02:05:50      0.000     0.000    0.0000
   02/06/2018 02:06:00      0.000     0.000    0.0000
   02/06/2018 02:06:10      0.000     0.000    0.0000
   02/06/2018 02:06:20      0.000     0.000    0.0000
   02/06/2018 02:06:30      0.000     0.000    0.0000
   02/06/2018 02:06:40      0.000     0.000    0.0000
   02/06/2018 02:06:50      0.000     0.000    0.0000
   02/06/2018 02:07:00      0.000     0.000    0.0000
   02/06/2018 02:07:10      0.000     0.000    0.0000
   02/06/2018 02:07:20      0.000     0.000    0.0000
   02/06/2018 02:07:30      0.000     0.000    0.0000
   02/06/2018 02:07:40      0.000     0.000    0.0000
   02/06/2018 02:07:50      0.000     0.000    0.0000
   02/06/2018 02:08:00      0.000     0.000    0.0000
   02/06/2018 02:08:10      0.000     0.000    0.0000
   02/06/2018 02:08:20      0.000     0.000    0.0000
   02/06/2018 02:08:30      0.000     0.000    0.0000
   02/06/2018 02:08:40      0.000     0.000    0.0000
   02/06/2018 02:08:50      0.000     0.000    0.0000
   02/06/2018 02:09:00      0.000     0.000    0.0000
   02/06/2018 02:09:10      0.000     0.000    0.0000
   02/06/2018 02:09:20      0.000     0.000    0.0000
   02/06/2018 02:09:30      0.000     0.000    0.0000
   02/06/2018 02:09:40      0.000     0.000    0.0000
   02/06/2018 02:09:50      0.000     0.000    0.0000
   02/06/2018 02:10:00      0.000     0.000    0.0000
   02/06/2018 02:10:10      0.000     0.000    0.0000
   02/06/2018 02:10:20      0.000     0.000    0.0000
   02/06/2018 02:10:30      0.000     0.000    0.0000
   02/06/2018 02:10:40      0.000     0.000    0.0000
   02/06/2018 02:10:50      0.000     0.000    0.0000
   02/06/2018 02:11:00      0.000     0.000    0.0000
   02/06/2018 02:11:10      0.000     0.000    0.0000
   02/06/2018 02:11:20      0.000     0.000    0.0000
   02/06/2018 02:11:30      0.000     0.000    0.0000
   02/06/2018 02:11:40      0.000     0.000    0.0000
   02/06/2018 02:11:50      0.000     0.000    0.0000
   02/06/2018 02:12:00      0.000     0.000    0.0000
   02/06/2018 02:12:10      0.000     0.000    0.0000
   02/06/2018 02:12:20      0.000     0.000    0.0000
   02/06/2018 02:12:30      0.000     0.000    0.0000
   02/06/2018 02:12:40      0.000     0.000    0.0000
   02/06/2018 02:12:50      0.000     0.000    0.0000
   02/06/2018 02:13:00      0.000     0.000    0.0000
   02/06/2018 02:13:10      0.000     0.000    0.0000
   02/06/2018 02:13:20      0.000     0.000    0.0000
   02/06/2018 02:13:30      0.000     0.000    0.0000
   02/06/2018 02:13:40      0.000     0.000    0.0000
   02/06/2018 02:13:50      0.000     0.000    0.0000
   02/06/2018 02:14:00      0.000     0.000    0.0000
   02/06/2018 02:14:10      0.000     0.000    0.0000
   02/06/2018 02:14:20      0.000     0.000    0.0000
   02/06/2018 02:14:30      0.000     0.000    0.0000
   02/06/2018 02:14:40      0.000     0.000    0.0000
   02/06/2018 02:14:50      0.000     0.000    0.0000
   02/06/2018 02:15:00      0.000     0.000    0.0000
   02/06/2018 02:15:10      0.000     0.000    0.0000
   02/06/2018 02:15:20      0.000     0.000    0.0000
   02/06/2018 02:15:30      0.000     0.000    0.0000
   02/06/2018 02:15:40      0.000     0.000    0.0000
   02/06/2018 02:15:50      0.000     0.000    0.0000
   02/06/2018 02:16:00      0.000     0.000    0.0000
   02/06/2018 02:16:10      0.000     0.000    0.0000
   02/06/2018 02:16:20      0.000     0.000    0.0000
   02/06/2018 02:16:30      0.000     0.000    0.0000
   02/06/2018 02:16:40      0.000     0.000    0.0000
   02/06/2018 02:16:50      0.000     0.000    0.0000
   02/06/2018 02:17:00      0.000     0.000    0.0000
   02/06/2018 02:17:10      0.000     0.000    0.0000
   02/06/2018 02:17:20      0.000     0.000    0.0000
   02/06/2018 02:17:30      0.000     0.000    0.0000
   02/06/2018 02:17:40      0.000     0.000    0.0000
   02/06/2018 02:17:50      0.000     0.000    0.0000
   02/06/2018 02:18:00      0.000     0.000    0.0000
   02/06/2018 02:18:10      0.000     0.000    0.0000
   02/06/2018 02:18:20      0.000     0.000    0.0000
   02/06/2018 02:18:30      0.000     0.000    0.0000
   02/06/2018 02:18:40      0.000     0.000    0.0000
   02/06/2018 02:18:50      0.000     0.000    0.0000
   02/06/2018 02:19:00      0.000     0.000    0.0000
   02/06/2018 02:19:10      0.000     0.000    0.0000
   02/06/2018 02:19:20      0.000     0.000    0.0000
   02/06/2018 02:19:30      0.000     0.000    0.0000
   02/06/2018 02:19:40      0.000     0.000    0.0000
   02/06/2018 02:19:50      0.000     0.000    0.0000
   02/06/2018 02:20:00      0.000     0.000    0.0000
   02/06/2018 02:20:10      0.000     0.000    0.0000
   02/06/2018 02:20:20      0.000     0.000    0.0000
   02/06/2018 02:20:30      0.000     0.000    0.0000
   02/06/2018 02:20:40      0.000     0.000    0.0000
   02/06/2018 02:20:50      0.000     0.000    0.0000
   02/06/2018 02:21:00      0.000     0.000    0.0000
   02/06/2018 02:21:10      0.000     0.000    0.0000
   02/06/2018 02:21:20      0.000     0.000    0.0000
   02/06/2018 02:21:30      0.000     0.000    0.0000
   02/06/2018 02:21:40      0.000     0.000    0.0000
   02/06/2018 02:21:50      0.000     0.000    0.0000
   02/06/2018 02:22:00      0.000     0.000    0.0000
   02/06/2018 02:22:10      0.000     0.000    0.0000
   02/06/2018 02:22:20      0.000     0.000    0.0000
   02/06/2018 02:22:30      0.000     0.000    0.0000
   02/06/2018 02:22:40      0.000     0.000    0.0000
   02/06/2018 02:22:50      0.000     0.000    0.0000
   02/06/2018 02:23:00      0.000     0.000    0.0000
   02/06/2018 02:23:10      0.000     0.000    0.0000
   02/06/2018 02:23:20      0.000     0.000    0.0000
   02/06/2018 02:23:30      0.000     0.000    0.0000
   02/06/2018 02:23:40      0.000     0.000    0.0000
   02/06/2018 02:23:50      0.000     0.000    0.0000
   02/06/2018 02:24:00      0.000     0.000    0.0000
   02/06/2018 02:24:10      0.000     0.000    0.0000
   02/06/2018 02:24:20      0.000     0.000    0.0000
   02/06/2018 02:24:30      0.000     0.000    0.0000
   02/06/2018 02:24:40      0.000     0.000    0.0000
   02/06/2018 02:24:50      0.000     0.000    0.0000
   02/06/2018 02:25:00      0.000     0.000    0.0000
   02/06/2018 02:25:10      0.000     0.000    0.0000
   02/06/2018 02:25:20      0.000     0.000    0.0000
   02/06/2018 02:25:30      0.000     0.000    0.0000
   02/06/2018 02:25:40      0.000     0.000    0.0000
   02/06/2018 02:25:50      0.000     0.000    0.0000
   02/06/2018 02:26:00      0.000     0.000    0.0000
   02/06/2018 02:26:10      0.000     0.000    0.0000
   02/06/2018 02:26:20      0.000     0.000    0.0000
   02/06/2018 02:26:30      0.000     0.000    0.0000
   02/06/2018 02:26:40      0.000     0.000    0.0000
   02/06/2018 02:26:50      0.000     0.000    0.0000
   02/06/2018 02:27:00      0.000     0.000    0.0000
   02/06/2018 02:27:10      0.000     0.000    0.0000
   02/06/2018 02:27:20      0.000     0.000    0.0000
   02/06/2018 02:27:30      0.000     0.000    0.0000
   02/06/2018 02:27:40      0.000     0.000    0.0000
   02/06/2018 02:27:50      0.000     0.000    0.0000
   02/06/2018 02:28:00      0.000     0.000    0.0000
   02/06/2018 02:28:10      0.000     0.000    0.0000
   02/06/2018 02:28:20      0.000     0.000    0.0000
   02/06/2018 02:28:30      0.000     0.000    0.0000
   02/06/2018 02:28:40      0.000     0.000    0.0000
   02/06/2018 02:28:50      0.000     0.000    0.0000
   02/06/2018 02:29:00      0.000     0.000    0.0000
   02/06/2018 02:29:10      0.000     0.000    0.0000
   02/06/2018 02:29:20      0.000     0.000    0.0000
   02/06/2018 02:29:30      0.000     0.000    0.0000
   02/06/2018 02:29:40      0.000     0.000    0.0000
   02/06/2018 02:29:50      0.000     0.000    0.0000
   02/06/2018 02:30:00      0.000     0.000    0.0000
   02/06/2018 02:30:10      0.000     0.000    0.0000
   02/06/2018 02:30:20      0.000     0.000    0.0000
   02/06/2018 02:30:30      0.000     0.000    0.0000
   02/06/2018 02:30:40      0.000     0.000    0.0000
   02/06/2018 02:30:50      0.000     0.000    0.0000
   02/06/2018 02:31:00      0.000     0.000    0.0000
   02/06/2018 02:31:10      0.000     0.000    0.0000
   02/06/2018 02:31:20      0.000     0.000    0.0000
   02/06/2018 02:31:30      0.000     0.000    0.0000
   02/06/2018 02:31:40      0.000     0.000    0.0000
   02/06/2018 02:31:50      0.000     0.000    0.0000
   02/06/2018 02:32:00      0.000     0.000    0.0000
   02/06/2018 02:32:10      0.000     0.000    0.0000
   02/06/2018 02:32:20      0.000     0.000    0.0000
   02/06/2018 02:32:30      0.000     0.000    0.0000
   02/06/2018 02:32:40      0.000     0.000    0.0000
   02/06/2018 02:32:50      0.000     0.000    0.0000
   02/06/2018 02:33:00      0.000     0.000    0.0000
   02/06/2018 02:33:10      0.000     0.000    0.0000
   02/06/2018 02:33:20      0.000     0.000    0.0000
   02/06/2018 02:33:30      0.000     0.000    0.0000
   02/06/2018 02:33:40      0.000     0.000    0.0000
   02/06/2018 02:33:50      0.000     0.000    0.0000
   02/06/2018 02:34:00      0.000     0.000    0.0000
   02/06/2018 02:34:10      0.000     0.000    0.0000
   02/06/2018 02:34:20      0.000     0.000    0.0000
   02/06/2018 02:34:30      0.000     0.000    0.0000
   02/06/2018 02:34:40      0.000     0.000    0.0000
   02/06/2018 02:34:50      0.000     0.000    0.0000
   02/06/2018 02:35:00      0.000     0.000    0.0000
   02/06/2018 02:35:10      0.000     0.000    0.0000
   02/06/2018 02:35:20      0.000     0.000    0.0000
   02/06/2018 02:35:30      0.000     0.000    0.0000
   02/06/2018 02:35:40      0.000     0.000    0.0000
   02/06/2018 02:35:50      0.000     0.000    0.0000
   02/06/2018 02:36:00      0.000     0.000    0.0000
   02/06/2018 02:36:10      0.000     0.000    0.0000
   02/06/2018 02:36:20      0.000     0.000    0.0000
   02/06/2018 02:36:30      0.000     0.000    0.0000
   02/06/2018 02:36:40      0.000     0.000    0.0000
   02/06/2018 02:36:50      0.000     0.000    0.0000
   02/06/2018 02:37:00      0.000     0.000    0.0000
   02/06/2018 02:37:10      0.000     0.000    0.0000
   02/06/2018 02:37:20      0.000     0.000    0.0000
   02/06/2018 02:37:30      0.000     0.000    0.0000
   02/06/2018 02:37:40      0.000     0.000    0.0000
   02/06/2018 02:37:50      0.000     0.000    0.0000
   02/06/2018 02:38:00      0.000     0.000    0.0000
   02/06/2018 02:38:10      0.000     0.000    0.0000
   02/06/2018 02:38:20      0.000     0.000    0.0000
   02/06/2018 02:38:30      0.000     0.000    0.0000
   02/06/2018 02:38:40      0.000     0.000    0.0000
   02/06/2018 02:38:50      0.000     0.000    0.0000
   02/06/2018 02:39:00      0.000     0.000    0.0000
   02/06/2018 02:39:10      0.000     0.000    0.0000
   02/06/2018 02:39:20      0.000     0.000    0.0000
   02/06/2018 02:39:30      0.000     0.000    0.0000
   02/06/2018 02:39:40      0.000     0.000    0.0000
   02/06/2018 02:39:50      0.000     0.000    0.0000
   02/06/2018 02:40:00      0.000     0.000    0.0000
   02/06/2018 02:40:10      0.000     0.000    0.0000
   02/06/2018 02:40:20      0.000     0.000    0.0000
   02/06/2018 02:40:30      0.000     0.000    0.0000
   02/06/2018 02:40:40      0.000     0.000    0.0000
   02/06/2018 02:40:50      0.000     0.000    0.0000
   02/06/2018 02:41:00      0.000     0.000    0.0000
   02/06/2018 02:41:10      0.000     0.000    0.0000
   02/06/2018 02:41:20      0.000     0.000    0.0000
   02/06/2018 02:41:30      0.000     0.000    0.0000
   02/06/2018 02:41:40      0.000     0.000    0.0000
   02/06/2018 02:41:50      0.000     0.000    0.0000
   02/06/2018 02:42:00      0.000     0.000    0.0000
   02/06/2018 02:42:10      0.000     0.000    0.0000
   02/06/2018 02:42:20      0.000     0.000    0.0000
   02/06/2018 02:42:30      0.000     0.000    0.0000
   02/06/2018 02:42:40      0.000     0.000    0.0000
   02/06/2018 02:42:50      0.000     0.000    0.0000
   02/06/2018 02:43:00      0.000     0.000    0.0000
   02/06/2018 02:43:10      0.000     0.000    0.0000
   02/06/2018 02:43:20      0.000     0.000    0.0000
   02/06/2018 02:43:30      0.000     0.000    0.0000
   02/06/2018 02:43:40      0.000     0.000    0.0000
   02/06/2018 02:43:50      0.000     0.000    0.0000
   02/06/2018 02:44:00      0.000     0.000    0.0000
   02/06/2018 02:44:10      0.000     0.000    0.0000
   02/06/2018 02:44:20      0.000     0.000    0.0000
   02/06/2018 02:44:30      0.000     0.000    0.0000
   02/06/2018 02:44:40      0.000     0.000    0.0000
   02/06/2018 02:44:50      0.000     0.000    0.0000
   02/06/2018 02:45:00      0.000     0.000    0.0000
   02/06/2018 02:45:10      0.000     0.000    0.0000
   02/06/2018 02:45:20      0.000     0.000    0.0000
   02/06/2018 02:45:30      0.000     0.000    0.0000
   02/06/2018 02:45:40      0.000     0.000    0.0000
   02/06/2018 02:45:50      0.000     0.000    0.0000
   02/06/2018 02:46:00      0.000     0.000    0.0000
   02/06/2018 02:46:10      0.000     0.000    0.0000
   02/06/2018 02:46:20      0.000     0.000    0.0000
   02/06/2018 02:46:30      0.000     0.000    0.0000
   02/06/2018 02:46:40      0.000     0.000    0.0000
   02/06/2018 02:46:50      0.000     0.000    0.0000
   02/06/2018 02:47:00      0.000     0.000    0.0000
   02/06/2018 02:47:10      0.000     0.000    0.0000
   02/06/2018 02:47:20      0.000     0.000    0.0000
   02/06/2018 02:47:30      0.000     0.000    0.0000
   02/06/2018 02:47:40      0.000     0.000    0.0000
   02/06/2018 02:47:50      0.000     0.000    0.0000
   02/06/2018 02:48:00      0.000     0.000    0.0000
   02/06/2018 02:48:10      0.000     0.000    0.0000
   02/06/2018 02:48:20      0.000     0.000    0.0000
   02/06/2018 02:48:30      0.000     0.000    0.0000
   02/06/2018 02:48:40      0.000     0.000    0.0000
   02/06/2018 02:48:50      0.000     0.000    0.0000
   02/06/2018 02:49:00      0.000     0.000    0.0000
   02/06/2018 02:49:10      0.000     0.000    0.0000
   02/06/2018 02:49:20      0.000     0.000    0.0000
   02/06/2018 02:49:30      0.000     0.000    0.0000
   02/06/2018 02:49:40      0.000     0.000    0.0000
   02/06/2018 02:49:50      0.000     0.000    0.0000
   02/06/2018 02:50:00      0.000     0.000    0.0000
   02/06/2018 02:50:10      0.000     0.000    0.0000
   02/06/2018 02:50:20      0.000     0.000    0.0000
   02/06/2018 02:50:30      0.000     0.000    0.0000
   02/06/2018 02:50:40      0.000     0.000    0.0000
   02/06/2018 02:50:50      0.000     0.000    0.0000
   02/06/2018 02:51:00      0.000     0.000    0.0000
   02/06/2018 02:51:10      0.000     0.000    0.0000
   02/06/2018 02:51:20      0.000     0.000    0.0000
   02/06/2018 02:51:30      0.000     0.000    0.0000
   02/06/2018 02:51:40      0.000     0.000    0.0000
   02/06/2018 02:51:50      0.000     0.000    0.0000
   02/06/2018 02:52:00      0.000     0.000    0.0000
   02/06/2018 02:52:10      0.000     0.000    0.0000
   02/06/2018 02:52:20      0.000     0.000    0.0000
   02/06/2018 02:52:30      0.000     0.000    0.0000
   02/06/2018 02:52:40      0.000     0.000    0.0000
   02/06/2018 02:52:50      0.000     0.000    0.0000
   02/06/2018 02:53:00      0.000     0.000    0.0000
   02/06/2018 02:53:10      0.000     0.000    0.0000
   02/06/2018 02:53:20      0.000     0.000    0.0000
   02/06/2018 02:53:30      0.000     0.000    0.0000
   02/06/2018 02:53:40      0.000     0.000    0.0000
   02/06/2018 02:53:50      0.000     0.000    0.0000
   02/06/2018 02:54:00      0.000     0.000    0.0000
   02/06/2018 02:54:10      0.000     0.000    0.0000
   02/06/2018 02:54:20      0.000     0.000    0.0000
   02/06/2018 02:54:30      0.000     0.000    0.0000
   02/06/2018 02:54:40      0.000     0.000    0.0000
   02/06/2018 02:54:50      0.000     0.000    0.0000
   02/06/2018 02:55:00      0.000     0.000    0.0000
   02/06/2018 02:55:10      0.000     0.000    0.0000
   02/06/2018 02:55:20      0.000     0.000    0.0000
   02/06/2018 02:55:30      0.000     0.000    0.0000
   02/06/2018 02:55:40      0.000     0.000    0.0000
   02/06/2018 02:55:50      0.000     0.000    0.0000
   02/06/2018 02:56:00      0.000     0.000    0.0000
   02/06/2018 02:56:10      0.000     0.000    0.0000
   02/06/2018 02:56:20      0.000     0.000    0.0000
   02/06/2018 02:56:30      0.000     0.000    0.0000
   02/06/2018 02:56:40      0.000     0.000    0.0000
   02/06/2018 02:56:50      0.000     0.000    0.0000
   02/06/2018 02:57:00      0.000     0.000    0.0000
   02/06/2018 02:57:10      0.000     0.000    0.0000
   02/06/2018 02:57:20      0.000     0.000    0.0000
   02/06/2018 02:57:30      0.000     0.000    0.0000
   02/06/2018 02:57:40      0.000     0.000    0.0000
   02/06/2018 02:57:50      0.000     0.000    0.0000
   02/06/2018 02:58:00      0.000     0.000    0.0000
   02/06/2018 02:58:10      0.000     0.000    0.0000
   02/06/2018 02:58:20      0.000     0.000    0.0000
   02/06/2018 02:58:30      0.000     0.000    0.0000
   02/06/2018 02:58:40      0.000     0.000    0.0000
   02/06/2018 02:58:50      0.000     0.000    0.0000
   02/06/2018 02:59:00      0.000     0.000    0.0000
   02/06/2018 02:59:10      0.000     0.000    0.0000
   02/06/2018 02:59:20      0.000     0.000    0.0000
   02/06/2018 02:59:30      0.000     0.000    0.0000
   02/06/2018 02:59:40      0.000     0.000    0.0000
   02/06/2018 02:59:50      0.000     0.000    0.0000
   02/06/2018 03:00:00      0.000     0.000    0.0000
   02/06/2018 03:00:10      0.000     0.000    0.0000
   02/06/2018 03:00:20      0.000     0.000    0.0000
   02/06/2018 03:00:30      0.000     0.000    0.0000
   02/06/2018 03:00:40      0.000     0.000    0.0000
   02/06/2018 03:00:50      0.000     0.000    0.0000
   02/06/2018 03:01:00      0.000     0.000    0.0000
   02/06/2018 03:01:10      0.000     0.000    0.0000
   02/06/2018 03:01:20      0.000     0.000    0.0000
   02/06/2018 03:01:30      0.000     0.000    0.0000
   02/06/2018 03:01:40      0.000     0.000    0.0000
   02/06/2018 03:01:50      0.000     0.000    0.0000
   02/06/2018 03:02:00      0.000     0.000    0.0000
   02/06/2018 03:02:10      0.000     0.000    0.0000
   02/06/2018 03:02:20      0.000     0.000    0.0000
   02/06/2018 03:02:30      0.000     0.000    0.0000
   02/06/2018 03:02:40      0.000     0.000    0.0000
   02/06/2018 03:02:50      0.000     0.000    0.0000
   02/06/2018 03:03:00      0.000     0.000    0.0000
   02/06/2018 03:03:10      0.000     0.000    0.0000
   02/06/2018 03:03:20      0.000     0.000    0.0000
   02/06/2018 03:03:30      0.000     0.000    0.0000
   02/06/2018 03:03:40      0.000     0.000    0.0000
   02/06/2018 03:03:50      0.000     0.000    0.0000
   02/06/2018 03:04:00      0.000     0.000    0.0000
   02/06/2018 03:04:10      0.000     0.000    0.0000
   02/06/2018 03:04:20      0.000     0.000    0.0000
   02/06/2018 03:04:30      0.000     0.000    0.0000
   02/06/2018 03:04:40      0.000     0.000    0.0000
   02/06/2018 03:04:50      0.000     0.000    0.0000
   02/06/2018 03:05:00      0.000     0.000    0.0000
   02/06/2018 03:05:10      0.000     0.000    0.0000
   02/06/2018 03:05:20      0.000     0.000    0.0000
   02/06/2018 03:05:30      0.000     0.000    0.0000
   02/06/2018 03:05:40      0.000     0.000    0.0000
   02/06/2018 03:05:50      0.000     0.000    0.0000
   02/06/2018 03:06:00      0.000     0.000    0.0000
   02/06/2018 03:06:10      0.000     0.000    0.0000
   02/06/2018 03:06:20      0.000     0.000    0.0000
   02/06/2018 03:06:30      0.000     0.000    0.0000
   02/06/2018 03:06:40      0.000     0.000    0.0000
   02/06/2018 03:06:50      0.000     0.000    0.0000
   02/06/2018 03:07:00      0.000     0.000    0.0000
   02/06/2018 03:07:10      0.000     0.000    0.0000
   02/06/2018 03:07:20      0.000     0.000    0.0000
   02/06/2018 03:07:30      0.000     0.000    0.0000
   02/06/2018 03:07:40      0.000     0.000    0.0000
   02/06/2018 03:07:50      0.000     0.000    0.0000
   02/06/2018 03:08:00      0.000     0.000    0.0000
   02/06/2018 03:08:10      0.000     0.000    0.0000
   02/06/2018 03:08:20      0.000     0.000    0.0000
   02/06/2018 03:08:30      0.000     0.000    0.0000
   02/06/2018 03:08:40      0.000     0.000    0.0000
   02/06/2018 03:08:50      0.000     0.000    0.0000
   02/06/2018 03:09:00      0.000     0.000    0.0000
   02/06/2018 03:09:10      0.000     0.000    0.0000
   02/06/2018 03:09:20      0.000     0.000    0.0000
   02/06/2018 03:09:30      0.000     0.000    0.0000
   02/06/2018 03:09:40      0.000     0.000    0.0000
   02/06/2018 03:09:50      0.000     0.000    0.0000
   02/06/2018 03:10:00      0.000     0.000    0.0000
   02/06/2018 03:10:10      0.000     0.000    0.0000
   02/06/2018 03:10:20      0.000     0.000    0.0000
   02/06/2018 03:10:30      0.000     0.000    0.0000
   02/06/2018 03:10:40      0.000     0.000    0.0000
   02/06/2018 03:10:50      0.000     0.000    0.0000
   02/06/2018 03:11:00      0.000     0.000    0.0000
   02/06/2018 03:11:10      0.000     0.000    0.0000
   02/06/2018 03:11:20      0.000     0.000    0.0000
   02/06/2018 03:11:30      0.000     0.000    0.0000
   02/06/2018 03:11:40      0.000     0.000    0.0000
   02/06/2018 03:11:50      0.000     0.000    0.0000
   02/06/2018 03:12:00      0.000     0.000    0.0000
   02/06/2018 03:12:10      0.000     0.000    0.0000
   02/06/2018 03:12:20      0.000     0.000    0.0000
   02/06/2018 03:12:30      0.000     0.000    0.0000
   02/06/2018 03:12:40      0.000     0.000    0.0000
   02/06/2018 03:12:50      0.000     0.000    0.0000
   02/06/2018 03:13:00      0.000     0.000    0.0000
   02/06/2018 03:13:10      0.000     0.000    0.0000
   02/06/2018 03:13:20      0.000     0.000    0.0000
   02/06/2018 03:13:30      0.000     0.000    0.0000
   02/06/2018 03:13:40      0.000     0.000    0.0000
   02/06/2018 03:13:50      0.000     0.000    0.0000
   02/06/2018 03:14:00      0.000     0.000    0.0000
   02/06/2018 03:14:10      0.000     0.000    0.0000
   02/06/2018 03:14:20      0.000     0.000    0.0000
   02/06/2018 03:14:30      0.000     0.000    0.0000
   02/06/2018 03:14:40      0.000     0.000    0.0000
   02/06/2018 03:14:50      0.000     0.000    0.0000
   02/06/2018 03:15:00      0.000     0.000    0.0000
   02/06/2018 03:15:10      0.000     0.000    0.0000
   02/06/2018 03:15:20      0.000     0.000    0.0000
   02/06/2018 03:15:30      0.000     0.000    0.0000
   02/06/2018 03:15:40      0.000     0.000    0.0000
   02/06/2018 03:15:50      0.000     0.000    0.0000
   02/06/2018 03:16:00      0.000     0.000    0.0000
   02/06/2018 03:16:10      0.000     0.000    0.0000
   02/06/2018 03:16:20      0.000     0.000    0.0000
   02/06/2018 03:16:30      0.000     0.000    0.0000
   02/06/2018 03:16:40      0.000     0.000    0.0000
   02/06/2018 03:16:50      0.000     0.000    0.0000
   02/06/2018 03:17:00      0.000     0.000    0.0000
   02/06/2018 03:17:10      0.000     0.000    0.0000
   02/06/2018 03:17:20      0.000     0.000    0.0000
   02/06/2018 03:17:30      0.000     0.000    0.0000
   02/06/2018 03:17:40      0.000     0.000    0.0000
   02/06/2018 03:17:50      0.000     0.000    0.0000
   02/06/2018 03:18:00      0.000     0.000    0.0000
   02/06/2018 03:18:10      0.000     0.000    0.0000
   02/06/2018 03:18:20      0.000     0.000    0.0000
   02/06/2018 03:18:30      0.000     0.000    0.0000
   02/06/2018 03:18:40      0.000     0.000    0.0000
   02/06/2018 03:18:50      0.000     0.000    0.0000
   02/06/2018 03:19:00      0.000     0.000    0.0000
   02/06/2018 03:19:10      0.000     0.000    0.0000
   02/06/2018 03:19:20      0.000     0.000    0.0000
   02/06/2018 03:19:30      0.000     0.000    0.0000
   02/06/2018 03:19:40      0.000     0.000    0.0000
   02/06/2018 03:19:50      0.000     0.000    0.0000
   02/06/2018 03:20:00      0.000     0.000    0.0000
   02/06/2018 03:20:10      0.000     0.000    0.0000
   02/06/2018 03:20:20      0.000     0.000    0.0000
   02/06/2018 03:20:30      0.000     0.000    0.0000
   02/06/2018 03:20:40      0.000     0.000    0.0000
   02/06/2018 03:20:50      0.000     0.000    0.0000
   02/06/2018 03:21:00      0.000     0.000    0.0000
   02/06/2018 03:21:10      0.000     0.000    0.0000
   02/06/2018 03:21:20      0.000     0.000    0.0000
   02/06/2018 03:21:30      0.000     0.000    0.0000
   02/06/2018 03:21:40      0.000     0.000    0.0000
   02/06/2018 03:21:50      0.000     0.000    0.0000
   02/06/2018 03:22:00      0.000     0.000    0.0000
   02/06/2018 03:22:10      0.000     0.000    0.0000
   02/06/2018 03:22:20      0.000     0.000    0.0000
   02/06/2018 03:22:30      0.000     0.000    0.0000
   02/06/2018 03:22:40      0.000     0.000    0.0000
   02/06/2018 03:22:50      0.000     0.000    0.0000
   02/06/2018 03:23:00      0.000     0.000    0.0000
   02/06/2018 03:23:10      0.000     0.000    0.0000
   02/06/2018 03:23:20      0.000     0.000    0.0000
   02/06/2018 03:23:30      0.000     0.000    0.0000
   02/06/2018 03:23:40      0.000     0.000    0.0000
   02/06/2018 03:23:50      0.000     0.000    0.0000
   02/06/2018 03:24:00      0.000     0.000    0.0000
   02/06/2018 03:24:10      0.000     0.000    0.0000
   02/06/2018 03:24:20      0.000     0.000    0.0000
   02/06/2018 03:24:30      0.000     0.000    0.0000
   02/06/2018 03:24:40      0.000     0.000    0.0000
   02/06/2018 03:24:50      0.000     0.000    0.0000
   02/06/2018 03:25:00      0.000     0.000    0.0000
   02/06/2018 03:25:10      0.000     0.000    0.0000
   02/06/2018 03:25:20      0.000     0.000    0.0000
   02/06/2018 03:25:30      0.000     0.000    0.0000
   02/06/2018 03:25:40      0.000     0.000    0.0000
   02/06/2018 03:25:50      0.000     0.000    0.0000
   02/06/2018 03:26:00      0.000     0.000    0.0000
   02/06/2018 03:26:10      0.000     0.000    0.0000
   02/06/2018 03:26:20      0.000     0.000    0.0000
   02/06/2018 03:26:30      0.000     0.000    0.0000
   02/06/2018 03:26:40      0.000     0.000    0.0000
   02/06/2018 03:26:50      0.000     0.000    0.0000
   02/06/2018 03:27:00      0.000     0.000    0.0000
   02/06/2018 03:27:10      0.000     0.000    0.0000
   02/06/2018 03:27:20      0.000     0.000    0.0000
   02/06/2018 03:27:30      0.000     0.000    0.0000
   02/06/2018 03:27:40      0.000     0.000    0.0000
   02/06/2018 03:27:50      0.000     0.000    0.0000
   02/06/2018 03:28:00      0.000     0.000    0.0000
   02/06/2018 03:28:10      0.000     0.000    0.0000
   02/06/2018 03:28:20      0.000     0.000    0.0000
   02/06/2018 03:28:30      0.000     0.000    0.0000
   02/06/2018 03:28:40      0.000     0.000    0.0000
   02/06/2018 03:28:50      0.000     0.000    0.0000
   02/06/2018 03:29:00      0.000     0.000    0.0000
   02/06/2018 03:29:10      0.000     0.000    0.0000
   02/06/2018 03:29:20      0.000     0.000    0.0000
   02/06/2018 03:29:30      0.000     0.000    0.0000
   02/06/2018 03:29:40      0.000     0.000    0.0000
   02/06/2018 03:29:50      0.000     0.000    0.0000
   02/06/2018 03:30:00      0.000     0.000    0.0000
   02/06/2018 03:30:10      0.000     0.000    0.0000
   02/06/2018 03:30:20      0.000     0.000    0.0000
   02/06/2018 03:30:30      0.000     0.000    0.0000
   02/06/2018 03:30:40      0.000     0.000    0.0000
   02/06/2018 03:30:50      0.000     0.000    0.0000
   02/06/2018 03:31:00      0.000     0.000    0.0000
   02/06/2018 03:31:10      0.000     0.000    0.0000
   02/06/2018 03:31:20      0.000     0.000    0.0000
   02/06/2018 03:31:30      0.000     0.000    0.0000
   02/06/2018 03:31:40      0.000     0.000    0.0000
   02/06/2018 03:31:50      0.000     0.000    0.0000
   02/06/2018 03:32:00      0.000     0.000    0.0000
   02/06/2018 03:32:10      0.000     0.000    0.0000
   02/06/2018 03:32:20      0.000     0.000    0.0000
   02/06/2018 03:32:30      0.000     0.000    0.0000
   02/06/2018 03:32:40      0.000     0.000    0.0000
   02/06/2018 03:32:50      0.000     0.000    0.0000
   02/06/2018 03:33:00      0.000     0.000    0.0000
   02/06/2018 03:33:10      0.000     0.000    0.0000
   02/06/2018 03:33:20      0.000     0.000    0.0000
   02/06/2018 03:33:30      0.000     0.000    0.0000
   02/06/2018 03:33:40      0.000     0.000    0.0000
   02/06/2018 03:33:50      0.000     0.000    0.0000
   02/06/2018 03:34:00      0.000     0.000    0.0000
   02/06/2018 03:34:10      0.000     0.000    0.0000
   02/06/2018 03:34:20      0.000     0.000    0.0000
   02/06/2018 03:34:30      0.000     0.000    0.0000
   02/06/2018 03:34:40      0.000     0.000    0.0000
   02/06/2018 03:34:50      0.000     0.000    0.0000
   02/06/2018 03:35:00      0.000     0.000    0.0000
   02/06/2018 03:35:10      0.000     0.000    0.0000
   02/06/2018 03:35:20      0.000     0.000    0.0000
   02/06/2018 03:35:30      0.000     0.000    0.0000
   02/06/2018 03:35:40      0.000     0.000    0.0000
   02/06/2018 03:35:50      0.000     0.000    0.0000
   02/06/2018 03:36:00      0.000     0.000    0.0000
   02/06/2018 03:36:10      0.000     0.000    0.0000
   02/06/2018 03:36:20      0.000     0.000    0.0000
   02/06/2018 03:36:30      0.000     0.000    0.0000
   02/06/2018 03:36:40      0.000     0.000    0.0000
   02/06/2018 03:36:50      0.000     0.000    0.0000
   02/06/2018 03:37:00      0.000     0.000    0.0000
   02/06/2018 03:37:10      0.000     0.000    0.0000
   02/06/2018 03:37:20      0.000     0.000    0.0000
   02/06/2018 03:37:30      0.000     0.000    0.0000
   02/06/2018 03:37:40      0.000     0.000    0.0000
   02/06/2018 03:37:50      0.000     0.000    0.0000
   02/06/2018 03:38:00      0.000     0.000    0.0000
   02/06/2018 03:38:10      0.000     0.000    0.0000
   02/06/2018 03:38:20      0.000     0.000    0.0000
   02/06/2018 03:38:30      0.000     0.000    0.0000
   02/06/2018 03:38:40      0.000     0.000    0.0000
   02/06/2018 03:38:50      0.000     0.000    0.0000
   02/06/2018 03:39:00      0.000     0.000    0.0000
   02/06/2018 03:39:10      0.000     0.000    0.0000
   02/06/2018 03:39:20      0.000     0.000    0.0000
   02/06/2018 03:39:30      0.000     0.000    0.0000
   02/06/2018 03:39:40      0.000     0.000    0.0000
   02/06/2018 03:39:50      0.000     0.000    0.0000
   02/06/2018 03:40:00      0.000     0.000    0.0000
   02/06/2018 03:40:10      0.000     0.000    0.0000
   02/06/2018 03:40:20      0.000     0.000    0.0000
   02/06/2018 03:40:30      0.000     0.000    0.0000
   02/06/2018 03:40:40      0.000     0.000    0.0000
   02/06/2018 03:40:50      0.000     0.000    0.0000
   02/06/2018 03:41:00      0.000     0.000    0.0000
   02/06/2018 03:41:10      0.000     0.000    0.0000
   02/06/2018 03:41:20      0.000     0.000    0.0000
   02/06/2018 03:41:30      0.000     0.000    0.0000
   02/06/2018 03:41:40      0.000     0.000    0.0000
   02/06/2018 03:41:50      0.000     0.000    0.0000
   02/06/2018 03:42:00      0.000     0.000    0.0000
   02/06/2018 03:42:10      0.000     0.000    0.0000
   02/06/2018 03:42:20      0.000     0.000    0.0000
   02/06/2018 03:42:30      0.000     0.000    0.0000
   02/06/2018 03:42:40      0.000     0.000    0.0000
   02/06/2018 03:42:50      0.000     0.000    0.0000
   02/06/2018 03:43:00      0.000     0.000    0.0000
   02/06/2018 03:43:10      0.000     0.000    0.0000
   02/06/2018 03:43:20      0.000     0.000    0.0000
   02/06/2018 03:43:30      0.000     0.000    0.0000
   02/06/2018 03:43:40      0.000     0.000    0.0000
   02/06/2018 03:43:50      0.000     0.000    0.0000
   02/06/2018 03:44:00      0.000     0.000    0.0000
   02/06/2018 03:44:10      0.000     0.000    0.0000
   02/06/2018 03:44:20      0.000     0.000    0.0000
   02/06/2018 03:44:30      0.000     0.000    0.0000
   02/06/2018 03:44:40      0.000     0.000    0.0000
   02/06/2018 03:44:50      0.000     0.000    0.0000
   02/06/2018 03:45:00      0.000     0.000    0.0000
   02/06/2018 03:45:10      0.000     0.000    0.0000
   02/06/2018 03:45:20      0.000     0.000    0.0000
   02/06/2018 03:45:30      0.000     0.000    0.0000
   02/06/2018 03:45:40      0.000     0.000    0.0000
   02/06/2018 03:45:50      0.000     0.000    0.0000
   02/06/2018 03:46:00      0.000     0.000    0.0000
   02/06/2018 03:46:10      0.000     0.000    0.0000
   02/06/2018 03:46:20      0.000     0.000    0.0000
   02/06/2018 03:46:30      0.000     0.000    0.0000
   02/06/2018 03:46:40      0.000     0.000    0.0000
   02/06/2018 03:46:50      0.000     0.000    0.0000
   02/06/2018 03:47:00      0.000     0.000    0.0000
   02/06/2018 03:47:10      0.000     0.000    0.0000
   02/06/2018 03:47:20      0.000     0.000    0.0000
   02/06/2018 03:47:30      0.000     0.000    0.0000
   02/06/2018 03:47:40      0.000     0.000    0.0000
   02/06/2018 03:47:50      0.000     0.000    0.0000
   02/06/2018 03:48:00      0.000     0.000    0.0000
   02/06/2018 03:48:10      0.000     0.000    0.0000
   02/06/2018 03:48:20      0.000     0.000    0.0000
   02/06/2018 03:48:30      0.000     0.000    0.0000
   02/06/2018 03:48:40      0.000     0.000    0.0000
   02/06/2018 03:48:50      0.000     0.000    0.0000
   02/06/2018 03:49:00      0.000     0.000    0.0000
   02/06/2018 03:49:10      0.000     0.000    0.0000
   02/06/2018 03:49:20      0.000     0.000    0.0000
   02/06/2018 03:49:30      0.000     0.000    0.0000
   02/06/2018 03:49:40      0.000     0.000    0.0000
   02/06/2018 03:49:50      0.000     0.000    0.0000
   02/06/2018 03:50:00      0.000     0.000    0.0000
   02/06/2018 03:50:10      0.000     0.000    0.0000
   02/06/2018 03:50:20      0.000     0.000    0.0000
   02/06/2018 03:50:30      0.000     0.000    0.0000
   02/06/2018 03:50:40      0.000     0.000    0.0000
   02/06/2018 03:50:50      0.000     0.000    0.0000
   02/06/2018 03:51:00      0.000     0.000    0.0000
   02/06/2018 03:51:10      0.000     0.000    0.0000
   02/06/2018 03:51:20      0.000     0.000    0.0000
   02/06/2018 03:51:30      0.000     0.000    0.0000
   02/06/2018 03:51:40      0.000     0.000    0.0000
   02/06/2018 03:51:50      0.000     0.000    0.0000
   02/06/2018 03:52:00      0.000     0.000    0.0000
   02/06/2018 03:52:10      0.000     0.000    0.0000
   02/06/2018 03:52:20      0.000     0.000    0.0000
   02/06/2018 03:52:30      0.000     0.000    0.0000
   02/06/2018 03:52:40      0.000     0.000    0.0000
   02/06/2018 03:52:50      0.000     0.000    0.0000
   02/06/2018 03:53:00      0.000     0.000    0.0000
   02/06/2018 03:53:10      0.000     0.000    0.0000
   02/06/2018 03:53:20      0.000     0.000    0.0000
   02/06/2018 03:53:30      0.000     0.000    0.0000
   02/06/2018 03:53:40      0.000     0.000    0.0000
   02/06/2018 03:53:50      0.000     0.000    0.0000
   02/06/2018 03:54:00      0.000     0.000    0.0000
   02/06/2018 03:54:10      0.000     0.000    0.0000
   02/06/2018 03:54:20      0.000     0.000    0.0000
   02/06/2018 03:54:30      0.000     0.000    0.0000
   02/06/2018 03:54:40      0.000     0.000    0.0000
   02/06/2018 03:54:50      0.000     0.000    0.0000
   02/06/2018 03:55:00      0.000     0.000    0.0000
   02/06/2018 03:55:10      0.000     0.000    0.0000
   02/06/2018 03:55:20      0.000     0.000    0.0000
   02/06/2018 03:55:30      0.000     0.000    0.0000
   02/06/2018 03:55:40      0.000     0.000    0.0000
   02/06/2018 03:55:50      0.000     0.000    0.0000
   02/06/2018 03:56:00      0.000     0.000    0.0000
   02/06/2018 03:56:10      0.000     0.000    0.0000
   02/06/2018 03:56:20      0.000     0.000    0.0000
   02/06/2018 03:56:30      0.000     0.000    0.0000
   02/06/2018 03:56:40      0.000     0.000    0.0000
   02/06/2018 03:56:50      0.000     0.000    0.0000
   02/06/2018 03:57:00      0.000     0.000    0.0000
   02/06/2018 03:57:10      0.000     0.000    0.0000
   02/06/2018 03:57:20      0.000     0.000    0.0000
   02/06/2018 03:57:30      0.000     0.000    0.0000
   02/06/2018 03:57:40      0.000     0.000    0.0000
   02/06/2018 03:57:50      0.000     0.000    0.0000
   02/06/2018 03:58:00      0.000     0.000    0.0000
   02/06/2018 03:58:10      0.000     0.000    0.0000
   02/06/2018 03:58:20      0.000     0.000    0.0000
   02/06/2018 03:58:30      0.000     0.000    0.0000
   02/06/2018 03:58:40      0.000     0.000    0.0000
   02/06/2018 03:58:50      0.000     0.000    0.0000
   02/06/2018 03:59:00      0.000     0.000    0.0000
   02/06/2018 03:59:10      0.000     0.000    0.0000
   02/06/2018 03:59:20      0.000     0.000    0.0000
   02/06/2018 03:59:30      0.000     0.000    0.0000
   02/06/2018 03:59:40      0.000     0.000    0.0000
   02/06/2018 03:59:50      0.000     0.000    0.0000
   02/06/2018 04:00:00      0.250     0.125    0.0000
   02/06/2018 04:00:10      0.250     0.125    0.0000
   02/06/2018 04:00:20      0.250     0.125    0.0000
   02/06/2018 04:00:30      0.250     0.125    0.0000
   02/06/2018 04:00:40      0.250     0.125    0.0000
   02/06/2018 04:00:50      0.250     0.125    0.0000
   02/06/2018 04:01:00      0.250     0.125    0.0000
   02/06/2018 04:01:10      0.250     0.125    0.0000
   02/06/2018 04:01:20      0.250     0.125    0.0000
   02/06/2018 04:01:30      0.250     0.125    0.0000
   02/06/2018 04:01:40      0.250     0.125    0.0000
   02/06/2018 04:01:50      0.250     0.125    0.0000
[...]
   02/06/2018 13:08:40      3.050     0.000     0.500     0.500
   02/06/2018 13:08:50      3.050     0.000     0.500     0.500
   02/06/2018 13:09:00      3.050     0.000     0.500     0.500
   02/06/2018 13:09:10      3.050     0.000     0.500     0.500
   02/06/2018 13:09:20      3.050     0.000     0.500     0.500
   02/06/2018 13:09:30      3.049     0.000     0.500     0.500
   02/06/2018 13:09:40      3.049     0.000     0.500     0.500
   02/06/2018 13:09:50      3.049     0.000     0.500     0.500
   02/06/2018 13:10:00      3.049     0.000     0.500     0.500
   02/06/2018 13:10:10      3.049     0.000     0.500     0.500
   02/06/2018 13:10:20      3.048     0.000     0.500     0.500
   02/06/2018 13:10:30      3.048     0.000     0.500     0.500
   02/06/2018 13:10:40      3.048     0.000     0.500     0.500
   02/06/2018 13:10:50      3.048     0.000     0.500     0.500
   02/06/2018 13:11:00      3.048     0.000     0.500     0.500
   02/06/2018 13:11:10      3.048     0.000     0.500     0.500
   02/06/2018 13:11:20      3.047     0.000     0.500     0.500
   02/06/2018 13:11:30      3.047     0.000     0.500     0.500
   02/06/2018 13:11:40      3.047     0.000     0.500     0.500
   02/06/2018 13:11:50      3.047     0.000     0.500     0.500
   02/06/2018 13:12:00      3.047     0.000     0.500     0.500
   02/06/2018 13:12:10      3.047     0.000     0.500     0.500
   02/06/2018 13:12:20      3.046     0.000     0.500     0.500
   02/06/2018 13:12:30      3.046     0.000     0.500     0.500
   02/06/2018 13:12:40      3.046     0.000     0.500     0.500
   02/06/2018 13:12:50      3.046     0.000     0.500     0.500
   02/06/2018 13:13:00      3.046     0.000     0.500     0.500
   02/06/2018 13:13:10      3.045     0.000     0.500     0.500
   02/06/2018 13:13:20      3.045     0.000     0.500     0.500
   02/06/2018 13:13:30      3.045     0.000     0.500     0.500
   02/06/2018 13:13:40      3.045     0.000     0.500     0.500
   02/06/2018 13:13:50      3.045     0.000     0.500     0.500
   02/06/2018 13:14:00      3.045     0.000     0.500     0.500
   02/06/2018 13:14:10      3.044     0.000     0.500     0.500
   02/06/2018 13:14:20      3.044     0.000     0.500     0.500
   02/06/2018 13:14:30      3.044     0.000     0.500     0.500
   02/06/2018 13:14:40      3.044     0.000     0.500     0.500
   02/06/2018 13:14:50      3.044     0.000     0.500     0.500
   02/06/2018 13:15:00      3.043     0.000     0.500     0.500
   02/06/2018 13:15:10      3.043     0.000     0.500     0.500
   02/06/2018 13:15:20      3.043     0.000     0.500     0.500
   02/06/2018 13:15:30      3.043     0.000     0.500     0.500
   02/06/2018 13:15:40      3.043     0.000     0.500     0.500
   02/06/2018 13:15:50      3.043     0.000     0.500     0.500
   02/06/2018 13:16:00      3.042     0.000     0.500     0.500
   02/06/2018 13:16:10      3.042     0.000     0.500     0.500
   02/06/2018 13:16:20      3.042     0.000     0.500     0.500
   02/06/2018 13:16:30      3.042     0.000     0.500     0.500
   02/06/2018 13:16:40      3.042     0.000     0.500     0.500
   02/06/2018 13:16:50      3.041     0.000     0.500     0.500
   02/06/2018 13:17:00      3.041     0.000     0.500     0.500
   02/06/2018 13:17:10      3.041     0.000     0.500     0.500
   02/06/2018 13:17:20      3.041     0.000     0.500     0.500
   02/06/2018 13:17:30      3.041     0.000     0.500     0.500
   02/06/2018 13:17:40      3.041     0.000     0.500     0.500
   02/06/2018 13:17:50      3.040     0.000     0.500     0.500
   02/06/2018 13:18:00      3.040     0.000     0.500     0.500
   02/06/2018 13:18:10      3.040     0.000     0.500     0.500
   02/06/2018 13:18:20      3.040     0.000     0.500     0.500
   02/06/2018 13:18:30      3.040     0.000     0.500     0.500
   02/06/2018 13:18:40      3.039     0.000     0.500     0.500
   02/06/2018 13:18:50      3.039     0.000     0.500     0.500
   02/06/2018 13:19:00      3.039     0.000     0.500     0.500
   02/06/2018 13:19:10      3.039     0.000     0.500     0.500
   02/06/2018 13:19:20      3.039     0.000     0.500     0.500
   02/06/2018 13:19:30      3.039     0.000     0.500     0.500
   02/06/2018 13:19:40      3.038     0.000     0.500     0.500
   02/06/2018 13:19:50      3.038     0.000     0.500     0.500
   02/06/2018 13:20:00      3.038     0.000     0.500     0.500
   02/06/2018 13:20:10      3.038     0.000     0.500     0.500
   02/06/2018 13:20:20      3.038     0.000     0.500     0.500
   02/06/2018 13:20:30      3.037     0.000     0.500     0.500
   02/06/2018 13:20:40      3.037     0.000     0.500     0.500
   02/06/2018 13:20:50      3.037     0.000     0.500     0.500
   02/06/2018 13:21:00      3.037     0.000     0.500     0.500
   02/06/2018 13:21:10      3.037     0.000     0.500     0.500
   02/06/2018 13:21:20      3.037     0.000     0.500     0.500
   02/06/2018 13:21:30      3.036     0.000     0.500     0.500
   02/06/2018 13:21:40      3.036     0.000     0.500     0.500
   02/06/2018 13:21:50      3.036     0.000     0.500     0.500
   02/06/2018 13:22:00      3.036     0.000     0.500     0.500
   02/06/2018 13:22:10      3.036     0.000     0.500     0.500
   02/06/2018 13:22:20      3.035     0.000     0.500     0.500
   02/06/2018 13:22:30      3.035     0.000     0.500     0.500
   02/06/2018 13:22:40      3.035     0.000     0.500     0.500
   02/06/2018 13:22:50      3.035     0.000     0.500     0.500
   02/06/2018 13:23:00      3.035     0.000     0.500     0.500
   02/06/2018 13:23:10      3.035     0.000     0.500     0.500
   02/06/2018 13:23:20      3.034     0.000     0.500     0.500
   02/06/2018 13:23:30      3.034     0.000     0.500     0.500
   02/06/2018 13:23:40      3.034     0.000     0.500     0.500
   02/06/2018 13:23:50      3.034     0.000     0.500     0.500
   02/06/2018 13:24:00      3.034     0.000     0.500     0.500
   02/06/2018 13:24:10      3.033     0.000     0.500     0.500
   02/06/2018 13:24:20      3.033     0.000     0.500     0.500
   02/06/2018 13:24:30      3.033     0.000     0.500     0.500
   02/06/2018 13:24:40      3.033     0.000     0.500     0.500
   02/06/2018 13:24:50      3.033     0.000     0.500     0.500
   02/06/2018 13:25:00      3.033     0.000     0.500     0.500
   02/06/2018 13:25:10      3.032     0.000     0.500     0.500
   02/06/2018 13:25:20      3.032     0.000     0.500     0.500
   02/06/2018 13:25:30      3.032     0.000     0.500     0.500
   02/06/2018 13:25:40      3.032     0.000     0.500     0.500
   02/06/2018 13:25:50      3.032     0.000     0.500     0.500
   02/06/2018 13:26:00      3.031     0.000     0.500     0.500
   02/06/2018 13:26:10      3.031     0.000     0.500     0.500
   02/06/2018 13:26:20      3.031     0.000     0.500     0.500
   02/06/2018 13:26:30      3.031     0.000     0.500     0.500
   02/06/2018 13:26:40      3.031     0.000     0.500     0.500
   02/06/2018 13:26:50      3.031     0.000     0.500     0.500
   02/06/2018 13:27:00      3.030     0.000     0.500     0.500
   02/06/2018 13:27:10      3.030     0.000     0.500     0.500
   02/06/2018 13:27:20      3.030     0.000     0.500     0.500
   02/06/2018 13:27:30      3.030     0.000     0.500     0.500
   02/06/2018 13:27:40      3.030     0.000     0.500     0.500
   02/06/2018 13:27:50      3.029     0.000     0.500     0.500
   02/06/2018 13:28:00      3.029     0.000     0.500     0.500
   02/06/2018 13:28:10      3.029     0.000     0.500     0.500
   02/06/2018 13:28:20      3.029     0.000     0.500     0.500
   02/06/2018 13:28:30      3.029     0.000     0.500     0.500
   02/06/2018 13:28:40      3.029     0.000     0.500     0.500
   02/06/2018 13:28:50      3.028     0.000     0.500     0.500
   02/06/2018 13:29:00      3.028     0.000     0.500     0.500
   02/06/2018 13:29:10      3.028     0.000     0.500     0.500
   02/06/2018 13:29:20      3.028     0.000     0.500     0.500
   02/06/2018 13:29:30      3.028     0.000     0.500     0.500
   02/06/2018 13:29:40      3.027     0.000     0.500     0.500
   02/06/2018 13:29:50      3.027     0.000     0.500     0.500
   02/06/2018 13:30:00      3.027     0.000     0.500     0.500
   02/06/2018 13:30:10      3.027     0.000     0.500     0.500
   02/06/2018 13:30:20      3.027     0.000     0.500     0.500
   02/06/2018 13:30:30      3.027     0.000     0.500     0.500
   02/06/2018 13:30:40      3.026     0.000     0.500     0.500
   02/06/2018 13:30:50      3.026     0.000     0.500     0.500
   02/06/2018 13:31:00      3.026     0.000     0.500     0.500
   02/06/2018 13:31:10      3.026     0.000     0.500     0.500
   02/06/2018 13:31:20      3.026     0.000     0.500     0.500
   02/06/2018 13:31:30      3.025     0.000     0.500     0.500
   02/06/2018 13:31:40      3.025     0.000     0.500     0.500
   02/06/2018 13:31:50      3.025     0.000     0.500     0.500
   02/06/2018 13:32:00      3.025     0.000     0.500     0.500
   02/06/2018 13:32:10      3.025     0.000     0.500     0.500
   02/06/2018 13:32:20      3.025     0.000     0.500     0.500
   02/06/2018 13:32:30      3.024     0.000     0.500     0.500
   02/06/2018 13:32:40      3.024     0.000     0.500     0.500
   02/06/2018 13:32:50      3.024     0.000     0.500     0.500
   02/06/2018 13:33:00      3.024     0.000     0.500     0.500
   02/06/2018 13:33:10      3.024     0.000     0.500     0.500
   02/06/2018 13:33:20      3.023     0.000     0.500     0.500
   02/06/2018 13:33:30      3.023     0.000     0.500     0.500
   02/06/2018 13:33:40      3.023     0.000     0.500     0.500
   02/06/2018 13:33:50      3.023     0.000     0.500     0.500
   02/06/2018 13:34:00      3.023     0.000     0.500     0.500
   02/06/2018 13:34:10      3.023     0.000     0.500     0.500
   02/06/2018 13:34:20      3.022     0.000     0.500     0.500
   02/06/2018 13:34:30      3.022     0.000     0.500     0.500
   02/06/2018 13:34:40      3.022     0.000     0.500     0.500
   02/06/2018 13:34:50      3.022     0.000     0.500     0.500
   02/06/2018 13:35:00      3.022     0.000     0.500     0.500
   02/06/2018 13:35:10      3.021     0.000     0.500     0.500
   02/06/2018 13:35:20      3.021     0.000     0.500     0.500
   02/06/2018 13:35:30      3.021     0.000     0.500     0.500
   02/06/2018 13:35:40      3.021     0.000     0.500     0.500
   02/06/2018 13:35:50      3.021     0.000     0.500     0.500
   02/06/2018 13:36:00      3.021     0.000     0.500     0.500
   02/06/2018 13:36:10      3.020     0.000     0.500     0.500
   02/06/2018 13:36:20      3.020     0.000     0.500     0.500
   02/06/2018 13:36:30      3.020     0.000     0.500     0.500
   02/06/2018 13:36:40      3.020     0.000     0.500     0.500
   02/06/2018 13:36:50      3.020     0.000     0.500     0.500
   02/06/2018 13:37:00      3.019     0.000     0.500     0.500
   02/06/2018 13:37:10      3.019     0.000     0.500     0.500
   02/06/2018 13:37:20      3.019     0.000     0.500     0.500
   02/06/2018 13:37:30      3.019     0.000     0.500     0.500
   02/06/2018 13:37:40      3.019     0.000     0.500     0.500
   02/06/2018 13:37:50      3.019     0.000     0.500     0.500
   02/06/2018 13:38:00      3.018     0.000     0.500     0.500
   02/06/2018 13:38:10      3.018     0.000     0.500     0.500
   02/06/2018 13:38:20      3.018     0.000     0.500     0.500
   02/06/2018 13:38:30      3.018     0.000     0.500     0.500
   02/06/2018 13:38:40      3.018     0.000     0.500     0.500
   02/06/2018 13:38:50      3.017     0.000     0.500     0.500
   02/06/2018 13:39:00      3.017     0.000     0.500     0.500
   02/06/2018 13:39:10      3.017     0.000     0.500     0.500
   02/06/2018 13:39:20      3.017     0.000     0.500     0.500
   02/06/2018 13:39:30      3.017     0.000     0.500     0.500
   02/06/2018 13:39:40      3.016     0.000     0.500     0.500
   02/06/2018 13:39:50      3.016     0.000     0.500     0.500
   02/06/2018 13:40:00      3.016     0.000     0.500     0.500
   02/06/2018 13:40:10      3.016     0.000     0.500     0.500
   02/06/2018 13:40:20      3.016     0.000     0.500     0.500
   02/06/2018 13:40:30      3.016     0.000     0.500     0.500
   02/06/2018 13:40:40      3.015     0.000     0.500     0.500
   02/06/2018 13:40:50      3.015     0.000     0.500     0.500
   02/06/2018 13:41:00      3.015     0.000     0.500     0.500
   02/06/2018 13:41:10      3.015     0.000     0.500     0.500
   02/06/2018 13:41:20      3.015     0.000     0.500     0.500
   02/06/2018 13:41:30      3.014     0.000     0.500     0.500
   02/06/2018 13:41:40      3.014     0.000     0.500     0.500
   02/06/2018 13:41:50      3.014     0.000     0.500     0.500
   02/06/2018 13:42:00      3.014     0.000     0.500     0.500
   02/06/2018 13:42:10      3.014     0.000     0.500     0.500
   02/06/2018 13:42:20      3.014     0.000     0.500     0.500
   02/06/2018 13:42:30      3.013     0.000     0.500     0.500
   02/06/2018 13:42:40      3.013     0.000     0.500     0.500
   02/06/2018 13:42:50      3.013     0.000     0.500     0.500
   02/06/2018 13:43:00      3.013     0.000     0.500     0.500
   02/06/2018 13:43:10      3.013     0.000     0.500     0.500
   02/06/2018 13:43:20      3.012     0.000     0.500     0.500
   02/06/2018 13:43:30      3.012     0.000     0.500     0.500
   02/06/2018 13:43:40      3.012     0.000     0.500     0.500
   02/06/2018 13:43:50      3.012     0.000     0.500     0.500
   02/06/2018 13:44:00      3.012     0.000     0.500     0.500
   02/06/2018 13:44:10      3.012     0.000     0.500     0.500
   02/06/2018 13:44:20      3.011     0.000     0.500     0.500
   02/06/2018 13:44:30      3.011     0.000     0.500     0.500
   02/06/2018 13:44:40      3.011     0.000     0.500     0.500
   02/06/2018 13:44:50      3.011     0.000     0.500     0.500
   02/06/2018 13:45:00      3.011     0.000     0.500     0.500
   02/06/2018 13:45:10      3.010     0.000     0.500     0.500
   02/06/2018 13:45:20      3.010     0.000     0.500     0.500
   02/06/2018 13:45:30      3.010     0.000     0.500     0.500
   02/06/2018 13:45:40      3.010     0.000     0.500     0.500
   02/06/2018 13:45:50      3.010     0.000     0.500     0.500
   02/06/2018 13:46:00      3.009     0.000     0.500     0.500
   02/06/2018 13:46:10      3.009     0.000     0.500     0.500
   02/06/2018 13:46:20      3.009     0.000     0.500     0.500
   02/06/2018 13:46:30      3.009     0.000     0.500     0.500
   02/06/2018 13:46:40      3.009     0.000     0.500     0.500
   02/06/2018 13:46:50      3.009     0.000     0.500     0.500
   02/06/2018 13:47:00      3.008     0.000     0.500     0.500
   02/06/2018 13:47:10      3.008     0.000     0.500     0.500
   02/06/2018 13:47:20      3.008     0.000     0.500     0.500
   02/06/2018 13:47:30      3.008     0.000     0.500     0.500
   02/06/2018 13:47:40      3.008     0.000     0.500     0.500
   02/06/2018 13:47:50      3.007     0.000     0.500     0.500
   02/06/2018 13:48:00      3.007     0.000     0.500     0.500
   02/06/2018 13:48:10      3.007     0.000     0.500     0.500
   02/06/2018 13:48:20      3.007     0.000     0.500     0.500
   02/06/2018 13:48:30      3.007     0.000     0.500     0.500
   02/06/2018 13:48:40      3.007     0.000     0.500     0.500
   02/06/2018 13:48:50      3.006     0.000     0.500     0.500
   02/06/2018 13:49:00      3.006     0.000     0.500     0.500
   02/06/2018 13:49:10      3.006     0.000     0.500     0.500
   02/06/2018 13:49:20      3.006     0.000     0.500     0.500
   02/06/2018 13:49:30      3.006     0.000     0.500     0.500
   02/06/2018 13:49:40      3.005     0.000     0.500     0.500
   02/06/2018 13:49:50      3.005     0.000     0.500     0.500
   02/06/2018 13:50:00      3.005     0.000     0.500     0.500
   02/06/2018 13:50:10      3.005     0.000     0.500     0.500
   02/06/2018 13:50:20      3.005     0.000     0.500     0.500
   02/06/2018 13:50:30      3.004     0.000     0.500     0.500
   02/06/2018 13:50:40      3.004     0.000     0.500     0.500
   02/06/2018 13:50:50      3.004     0.000     0.500     0.500
   02/06/2018 13:51:00      3.004     0.000     0.500     0.500
   02/06/2018 13:51:10      3.004     0.000     0.500     0.500
   02/06/2018 13:51:20      3.004     0.000     0.500     0.500
   02/06/2018 13:51:30      3.003     0.000     0.500     0.500
   02/06/2018 13:51:40      3.003     0.000     0.500     0.500
   02/06/2018 13:51:50      3.003     0.000     0.500     0.500
   02/06/2018 13:52:00      3.003     0.000     0.500     0.500
   02/06/2018 13:52:10      3.003     0.000     0.500     0.500
   02/06/2018 13:52:20      3.002     0.000     0.500     0.500
   02/06/2018 13:52:30      3.002     0.000     0.500     0.500
   02/06/2018 13:52:40      3.002     0.000     0.500     0.500
   02/06/2018 13:52:50      3.002     0.000     0.500     0.500
   02/06/2018 13:53:00      3.002     0.000     0.500     0.500
   02/06/2018 13:53:10      3.002     0.000     0.500     0.500
   02/06/2018 13:53:20      3.001     0.000     0.500     0.500
   02/06/2018 13:53:30      3.001     0.000     0.500     0.500
   02/06/2018 13:53:40      3.001     0.000     0.500     0.500
   02/06/2018 13:53:50      3.001     0.000     0.500     0.500
   02/06/2018 13:54:00      3.001     0.000     0.500     0.500
   02/06/2018 13:54:10      3.000     0.000     0.500     0.500
   02/06/2018 13:54:20      3.000     0.000     0.500     0.500
   02/06/2018 13:54:30      3.000     0.000     0.500     0.500
   02/06/2018 13:54:40      3.000     0.000     0.500     0.500
   02/06/2018 13:54:50      3.000     0.000     0.500     0.500
   02/06/2018 13:55:00      2.999     0.000     0.500     0.500
   02/06/2018 13:55:10      2.999     0.000     0.500     0.500
   02/06/2018 13:55:20      2.999     0.000     0.500     0.500
   02/06/2018 13:55:30      2.999     0.000     0.500     0.500
   02/06/2018 13:55:40      2.999     0.000     0.500     0.500
   02/06/2018 13:55:50      2.999     0.000     0.500     0.500
   02/06/2018 13:56:00      2.998     0.000     0.500     0.500
   02/06/2018 13:56:10      2.998     0.000     0.500     0.500
   02/06/2018 13:56:20      2.998     0.000     0.500     0.500
   02/06/2018 13:56:30      2.998     0.000     0.500     0.500
   02/06/2018 13:56:40      2.998     0.000     0.500     0.500
   02/06/2018 13:56:50      2.997     0.000     0.500     0.500
   02/06/2018 13:57:00      2.997     0.000     0.500     0.500
   02/06/2018 13:57:10      2.997     0.000     0.500     0.500
   02/06/2018 13:57:20      2.997     0.000     0.500     0.500
   02/06/2018 13:57:30      2.997     0.000     0.500     0.500
   02/06/2018 13:57:40      2.996     0.000     0.500     0.500
   02/06/2018 13:57:50      2.996     0.000     0.500     0.500
   02/06/2018 13:58:00      2.996     0.000     0.500     0.500
   02/06/2018 13:58:10      2.996     0.000     0.500     0.500
   02/06/2018 13:58:20      2.996     0.000     0.500     0.500
   02/06/2018 13:58:30      2.996     0.000     0.500     0.500
   02/06/2018 13:58:40      2.995     0.000     0.500     0.500
   02/06/2018 13:58:50      2.995     0.000     0.500     0.500
   02/06/2018 13:59:00      2.995     0.000     0.500     0.500
   02/06/2018 13:59:10      2.995     0.000     0.500     0.500
   02/06/2018 13:59:20      2.995     0.000     0.500     0.500
   02/06/2018 13:59:30      2.994     0.000     0.500     0.500
   02/06/2018 13:59:40      2.994     0.000     0.500     0.500
   02/06/2018 13:59:50      2.994     0.000     0.500     0.500
   02/06/2018 14:00:00      2.994     0.000     0.500     0.500
  
  
  ERROR 309: error writing to binary results file.

  Analysis begun on:  Tue Feb 13 11:15:03 2018
  Analysis ended on:  Tue Feb 13 11:15:10 2018
  Total elapsed time: 00:00:07