
  EPA STORM WATER MANAGEMENT MODEL - VERSION 5.1 (Build 5.2.0.dev1)
  --------------------------------------------------------------

  
  *********************************************************
  NOTE: The summary statistics displayed in this report are
  based on results found at every computational time step,  
  not just on results from each reporting time step.
  *********************************************************
  
  ****************
  Analysis Options
  ****************
  Flow Units ............... CFS
  Process Models:
    Rainfall/Runoff ........ YES
    RDII ................... NO
    Snowmelt ............... NO
    Groundwater ............ NO
    Flow Routing ........... YES
    Ponding Allowed ........ NO
    Water Quality .......... NO
  Infiltration Method ...... MODIFIED_GREEN_AMPT
  Flow Routing Method ...... DYNWAVE
  Starting Date ............ 02/06/2018 00:00:00
  Ending Date .............. 02/06/2018 14:00:00
  Antecedent Dry Days ...... 0.0
  Report Time Step ......... 00:15:00
  Wet Time Step ............ 00:05:00
  Dry Time Step ............ 01:00:00
  Routing Time Step ........ 10.00 sec
  Variable Time Step ....... YES
  Maximum Trials ........... 8
  Number of Threads ........ 1
  Head Tolerance ........... 0.005000 ft
  
  
  ********************
  Subcatchment Results
  ********************
  
  <<< Subcatchment S1 >>>
  ---------------------------------------------------
  Date        Time        Precip.    Losses    Runoff
                            in/hr     in/hr       CFS
  ---------------------------------------------------
   02/06/2018 00:15:00      0.000     0.000    0.0000
   02/06/2018 00:30:00      0.000     0.000    0.0000
   02/06/2018 00:45:00      0.000     0.000    0.0000
   02/06/2018 01:00:00      0.250     0.125    0.0000
   02/06/2018 01:15:00      0.250     0.125    0.1912
   02/06/2018 01:30:00      0.250     0.125    1.0842
   02/06/2018 01:45:00      0.250     0.125    2.3486
   02/06/2018 02:00:00      0.500     0.250    3.6614
   02/06/2018 02:15:00      0.500     0.250    7.1546
   02/06/2018 02:30:00      0.500     0.250   10.2508
   02/06/2018 02:45:00      0.500     0.250   12.6421
   02/06/2018 03:00:00      0.400     0.200   14.3490
   02/06/2018 03:15:00      0.400     0.200   14.2683
   02/06/2018 03:30:00      0.400     0.200   14.2158
   02/06/2018 03:45:00      0.400     0.200   14.1816
   02/06/2018 04:00:00      0.250     0.125   14.1593
   02/06/2018 04:15:00      0.250     0.125   12.3546
   02/06/2018 04:30:00      0.250     0.125   11.2045
   02/06/2018 04:45:00      0.250     0.125   10.4498
   02/06/2018 05:00:00      0.125     0.063    9.9442
   02/06/2018 05:15:00      0.125     0.063    8.2903
   02/06/2018 05:30:00      0.125     0.063    7.1918
   02/06/2018 05:45:00      0.125     0.063    6.4374
   02/06/2018 06:00:00      0.000     0.000    5.9057
   02/06/2018 06:15:00      0.000     0.000    4.4510
   02/06/2018 06:30:00      0.000     0.000    3.4525
   02/06/2018 06:45:00      0.000     0.000    2.7415
   02/06/2018 07:00:00      0.000     0.000    2.2198
   02/06/2018 07:15:00      0.000     0.000    1.8271
   02/06/2018 07:30:00      0.000     0.000    1.5253
   02/06/2018 07:45:00      0.000     0.000    1.2888
   02/06/2018 08:00:00      0.000     0.000    1.1007
   02/06/2018 08:15:00      0.000     0.000    0.9489
   02/06/2018 08:30:00      0.000     0.000    0.8249
   02/06/2018 08:45:00      0.000     0.000    0.7224
   02/06/2018 09:00:00      0.000     0.000    0.6369
   02/06/2018 09:15:00      0.000     0.000    0.5649
   02/06/2018 09:30:00      0.000     0.000    0.5038
   02/06/2018 09:45:00      0.000     0.000    0.4516
   02/06/2018 10:00:00      0.000     0.000    0.4066
   02/06/2018 10:15:00      0.000     0.000    0.3677
   02/06/2018 10:30:00      0.000     0.000    0.3338
   02/06/2018 10:45:00      0.000     0.000    0.3041
   02/06/2018 11:00:00      0.000     0.000    0.2780
   02/06/2018 11:15:00      0.000     0.000    0.2549
   02/06/2018 11:30:00      0.000     0.000    0.2345
   02/06/2018 11:45:00      0.000     0.000    0.2162
   02/06/2018 12:00:00      0.000     0.000    0.1999
   02/06/2018 12:15:00      0.000     0.000    0.1852
   02/06/2018 12:30:00      0.000     0.000    0.1720
   02/06/2018 12:45:00      0.000     0.000    0.1601
   02/06/2018 13:00:00      0.000     0.000    0.1493
   02/06/2018 13:15:00      0.000     0.000    0.1396
   02/06/2018 13:30:00      0.000     0.000    0.1306
   02/06/2018 13:45:00      0.000     0.000    0.1225
   02/06/2018 14:00:00      0.000     0.000    0.1150
  
  
  ************
  Node Results
  ************
  
  <<< Node J1 >>>
  ----------------------------------------------------------------
                           Inflow  Flooding     Depth      Head
  Date        Time            CFS       CFS      feet      feet
  ----------------------------------------------------------------
   02/06/2018 00:15:00      0.000     0.000     0.000    96.000
   02/06/2018 00:30:00      0.000     0.000     0.000    96.000
   02/06/2018 00:45:00      0.000     0.000     0.000    96.000
   02/06/2018 01:00:00      0.000     0.000     0.000    96.000
   02/06/2018 01:15:00      0.191     0.000     0.131    96.131
   02/06/2018 01:30:00      1.083     0.000     0.348    96.348
   02/06/2018 01:45:00      2.347     0.000     0.529    96.529
   02/06/2018 02:00:00      3.660     0.000     0.672    96.672
   02/06/2018 02:15:00      7.151     0.000     0.968    96.968
   02/06/2018 02:30:00     10.248     0.000     1.211    97.211
   02/06/2018 02:45:00     12.640     0.000     1.399    97.399
   02/06/2018 03:00:00     14.347     0.000     1.545    97.545
   02/06/2018 03:15:00     14.268     0.000     1.545    97.545
   02/06/2018 03:30:00     14.216     0.000     1.540    97.540
   02/06/2018 03:45:00     14.182     0.000     1.537    97.537
   02/06/2018 04:00:00     14.159     0.000     1.535    97.535
   02/06/2018 04:15:00     12.356     0.000     1.390    97.390
   02/06/2018 04:30:00     11.206     0.000     1.298    97.298
   02/06/2018 04:45:00     10.450     0.000     1.239    97.239
   02/06/2018 05:00:00      9.945     0.000     1.199    97.199
   02/06/2018 05:15:00      8.292     0.000     1.076    97.076
   02/06/2018 05:30:00      7.193     0.000     0.989    96.989
   02/06/2018 05:45:00      6.438     0.000     0.928    96.928
   02/06/2018 06:00:00      5.906     0.000     0.883    96.883
   02/06/2018 06:15:00      4.452     0.000     0.761    96.761
   02/06/2018 06:30:00      3.453     0.000     0.665    96.665
   02/06/2018 06:45:00      2.742     0.000     0.590    96.590
   02/06/2018 07:00:00      2.220     0.000     0.530    96.530
   02/06/2018 07:15:00      1.828     0.000     0.481    96.481
   02/06/2018 07:30:00      1.526     0.000     0.439    96.439
   02/06/2018 07:45:00      1.289     0.000     0.404    96.404
   02/06/2018 08:00:00      1.101     0.000     0.374    96.374
   02/06/2018 08:15:00      0.949     0.000     0.348    96.348
   02/06/2018 08:30:00      0.825     0.000     0.325    96.325
   02/06/2018 08:45:00      0.722     0.000     0.305    96.305
   02/06/2018 09:00:00      0.637     0.000     0.288    96.288
   02/06/2018 09:15:00      0.565     0.000     0.272    96.272
   02/06/2018 09:30:00      0.504     0.000     0.257    96.257
   02/06/2018 09:45:00      0.452     0.000     0.244    96.244
   02/06/2018 10:00:00      0.407     0.000     0.233    96.233
   02/06/2018 10:15:00      0.368     0.000     0.222    96.222
   02/06/2018 10:30:00      0.334     0.000     0.212    96.212
   02/06/2018 10:45:00      0.304     0.000     0.203    96.203
   02/06/2018 11:00:00      0.278     0.000     0.195    96.195
   02/06/2018 11:15:00      0.255     0.000     0.187    96.187
   02/06/2018 11:30:00      0.235     0.000     0.180    96.180
   02/06/2018 11:45:00      0.216     0.000     0.173    96.173
   02/06/2018 12:00:00      0.200     0.000     0.167    96.167
   02/06/2018 12:15:00      0.185     0.000     0.162    96.162
   02/06/2018 12:30:00      0.172     0.000     0.156    96.156
   02/06/2018 12:45:00      0.160     0.000     0.151    96.151
   02/06/2018 13:00:00      0.149     0.000     0.147    96.147
   02/06/2018 13:15:00      0.140     0.000     0.142    96.142
   02/06/2018 13:30:00      0.131     0.000     0.138    96.138
   02/06/2018 13:45:00      0.123     0.000     0.134    96.134
   02/06/2018 14:00:00      0.115     0.000     0.130    96.130
  
  
  <<< Node J2 >>>
  ----------------------------------------------------------------
                           Inflow  Flooding     Depth      Head
  Date        Time            CFS       CFS      feet      feet
  ----------------------------------------------------------------
   02/06/2018 00:15:00      0.000     0.000     0.000    90.000
   02/06/2018 00:30:00      0.000     0.000     0.000    90.000
   02/06/2018 00:45:00      0.000     0.000     0.000    90.000
   02/06/2018 01:00:00      0.000     0.000     0.000    90.000
   02/06/2018 01:15:00      0.000     0.000     0.000    90.000
   02/06/2018 01:30:00      0.000     0.000     0.000    90.000
   02/06/2018 01:45:00      0.000     0.000     0.000    90.000
   02/06/2018 02:00:00      0.000     0.000     0.000    90.000
   02/06/2018 02:15:00      0.000     0.000     0.000    90.000
   02/06/2018 02:30:00      0.000     0.000     0.000    90.000
   02/06/2018 02:45:00      0.000     0.000     0.000    90.000
   02/06/2018 03:00:00      0.000     0.000     0.000    90.000
   02/06/2018 03:15:00      0.000     0.000     0.000    90.000
   02/06/2018 03:30:00      0.000     0.000     0.000    90.000
   02/06/2018 03:45:00      0.000     0.000     0.000    90.000
   02/06/2018 04:00:00      0.001     0.000     0.000    90.000
   02/06/2018 04:15:00      1.606     0.000     0.480    90.480
   02/06/2018 04:30:00      2.894     0.000     0.727    90.727
   02/06/2018 04:45:00      3.361     0.000     1.701    91.701
   02/06/2018 05:00:00      3.717     0.000     2.520    92.520
   02/06/2018 05:15:00      3.980     0.000     2.909    92.909
   02/06/2018 05:30:00      4.050     0.000     3.051    93.051
   02/06/2018 05:45:00      4.081     0.000     3.099    93.099
   02/06/2018 06:00:00      4.104     0.000     3.136    93.136
   02/06/2018 06:15:00      4.115     0.000     3.156    93.156
   02/06/2018 06:30:00      4.113     0.000     3.155    93.155
   02/06/2018 06:45:00      4.101     0.000     3.139    93.139
   02/06/2018 07:00:00      4.083     0.000     3.113    93.113
   02/06/2018 07:15:00      4.060     0.000     3.079    93.079
   02/06/2018 07:30:00      4.033     0.000     3.039    93.039
   02/06/2018 07:45:00      3.994     0.000     2.991    92.991
   02/06/2018 08:00:00      3.863     0.000     2.808    92.808
   02/06/2018 08:15:00      3.726     0.000     2.614    92.614
   02/06/2018 08:30:00      3.584     0.000     2.419    92.419
   02/06/2018 08:45:00      3.437     0.000     2.222    92.222
   02/06/2018 09:00:00      3.287     0.000     1.875    91.875
   02/06/2018 09:15:00      3.134     0.000     1.504    91.504
   02/06/2018 09:30:00      2.979     0.000     1.144    91.144
   02/06/2018 09:45:00      2.822     0.000     0.718    90.718
   02/06/2018 10:00:00      2.663     0.000     0.686    90.686
   02/06/2018 10:15:00      2.385     0.000     0.636    90.636
   02/06/2018 10:30:00      2.001     0.000     0.567    90.567
   02/06/2018 10:45:00      1.700     0.000     0.513    90.513
   02/06/2018 11:00:00      1.460     0.000     0.469    90.469
   02/06/2018 11:15:00      1.265     0.000     0.433    90.433
   02/06/2018 11:30:00      1.106     0.000     0.402    90.402
   02/06/2018 11:45:00      0.973     0.000     0.375    90.375
   02/06/2018 12:00:00      0.863     0.000     0.351    90.351
   02/06/2018 12:15:00      0.769     0.000     0.331    90.331
   02/06/2018 12:30:00      0.690     0.000     0.312    90.312
   02/06/2018 12:45:00      0.622     0.000     0.296    90.296
   02/06/2018 13:00:00      0.563     0.000     0.281    90.281
   02/06/2018 13:15:00      0.512     0.000     0.268    90.268
   02/06/2018 13:30:00      0.467     0.000     0.256    90.256
   02/06/2018 13:45:00      0.428     0.000     0.245    90.245
   02/06/2018 14:00:00      0.393     0.000     0.234    90.234
  
  
  <<< Node J3 >>>
  ----------------------------------------------------------------
                           Inflow  Flooding     Depth      Head
  Date        Time            CFS       CFS      feet      feet
  ----------------------------------------------------------------
   02/06/2018 00:15:00      0.000     0.000     0.000    88.000
   02/06/2018 00:30:00      0.000     0.000     0.000    88.000
   02/06/2018 00:45:00      0.000     0.000     0.000    88.000
   02/06/2018 01:00:00      0.000     0.000     0.000    88.000
   02/06/2018 01:15:00      0.000     0.000     0.000    88.000
   02/06/2018 01:30:00      0.000     0.000     0.000    88.000
   02/06/2018 01:45:00      0.000     0.000     0.000    88.000
   02/06/2018 02:00:00      0.000     0.000     0.000    88.000
   02/06/2018 02:15:00      0.000     0.000     0.000    88.000
   02/06/2018 02:30:00      0.000     0.000     0.000    88.000
   02/06/2018 02:45:00      0.000     0.000     0.000    88.000
   02/06/2018 03:00:00      0.000     0.000     0.000    88.000
   02/06/2018 03:15:00      0.000     0.000     0.000    88.000
   02/06/2018 03:30:00      0.000     0.000     0.000    88.000
   02/06/2018 03:45:00      0.000     0.000     0.000    88.000
   02/06/2018 04:00:00      0.000     0.000     0.000    88.000
   02/06/2018 04:15:00      1.517     0.000     0.548    88.548
   02/06/2018 04:30:00      2.869     0.000     1.301    89.301
   02/06/2018 04:45:00      3.246     0.000     1.729    89.729
   02/06/2018 05:00:00      3.671     0.199     2.000    90.000
   02/06/2018 05:15:00      3.947     0.474     2.000    90.000
   02/06/2018 05:30:00      4.045     0.574     2.000    90.000
   02/06/2018 05:45:00      4.077     0.606     2.000    90.000
   02/06/2018 06:00:00      4.101     0.630     2.000    90.000
   02/06/2018 06:15:00      4.114     0.643     2.000    90.000
   02/06/2018 06:30:00      4.114     0.643     2.000    90.000
   02/06/2018 06:45:00      4.103     0.632     2.000    90.000
   02/06/2018 07:00:00      4.086     0.615     2.000    90.000
   02/06/2018 07:15:00      4.064     0.593     2.000    90.000
   02/06/2018 07:30:00      4.038     0.567     2.000    90.000
   02/06/2018 07:45:00      4.006     0.535     2.000    90.000
   02/06/2018 08:00:00      3.883     0.413     2.000    90.000
   02/06/2018 08:15:00      3.746     0.276     2.000    90.000
   02/06/2018 08:30:00      3.604     0.133     2.000    90.000
   02/06/2018 08:45:00      3.463     0.000     1.988    89.988
   02/06/2018 09:00:00      3.325     0.000     1.816    89.816
   02/06/2018 09:15:00      3.172     0.000     1.630    89.630
   02/06/2018 09:30:00      3.015     0.000     1.452    89.452
   02/06/2018 09:45:00      2.830     0.000     1.249    89.249
   02/06/2018 10:00:00      2.669     0.000     1.092    89.092
   02/06/2018 10:15:00      2.401     0.000     0.914    88.914
   02/06/2018 10:30:00      2.015     0.000     0.750    88.750
   02/06/2018 10:45:00      1.712     0.000     0.659    88.659
   02/06/2018 11:00:00      1.469     0.000     0.594    88.594
   02/06/2018 11:15:00      1.273     0.000     0.542    88.542
   02/06/2018 11:30:00      1.112     0.000     0.499    88.499
   02/06/2018 11:45:00      0.979     0.000     0.464    88.464
   02/06/2018 12:00:00      0.868     0.000     0.433    88.433
   02/06/2018 12:15:00      0.774     0.000     0.406    88.406
   02/06/2018 12:30:00      0.694     0.000     0.383    88.383
   02/06/2018 12:45:00      0.625     0.000     0.362    88.362
   02/06/2018 13:00:00      0.566     0.000     0.343    88.343
   02/06/2018 13:15:00      0.514     0.000     0.327    88.327
   02/06/2018 13:30:00      0.469     0.000     0.312    88.312
   02/06/2018 13:45:00      0.430     0.000     0.298    88.298
   02/06/2018 14:00:00      0.395     0.000     0.285    88.285
  
  
  <<< Node Out1 >>>
  ----------------------------------------------------------------
                           Inflow  Flooding     Depth      Head
  Date        Time            CFS       CFS      feet      feet
  ----------------------------------------------------------------
   02/06/2018 00:15:00      0.000     0.000     0.000    87.000
   02/06/2018 00:30:00      0.000     0.000     0.000    87.000
   02/06/2018 00:45:00      0.000     0.000     0.000    87.000
   02/06/2018 01:00:00      0.000     0.000     0.000    87.000
   02/06/2018 01:15:00      0.000     0.000     0.000    87.000
   02/06/2018 01:30:00      0.000     0.000     0.000    87.000
   02/06/2018 01:45:00      0.000     0.000     0.000    87.000
   02/06/2018 02:00:00      0.000     0.000     0.000    87.000
   02/06/2018 02:15:00      0.000     0.000     0.000    87.000
   02/06/2018 02:30:00      0.000     0.000     0.000    87.000
   02/06/2018 02:45:00      0.000     0.000     0.000    87.000
   02/06/2018 03:00:00      0.000     0.000     0.000    87.000
   02/06/2018 03:15:00      0.000     0.000     0.000    87.000
   02/06/2018 03:30:00      0.000     0.000     0.000    87.000
   02/06/2018 03:45:00      0.000     0.000     0.000    87.000
   02/06/2018 04:00:00      0.000     0.000     0.000    87.000
   02/06/2018 04:15:00      1.268     0.000     0.475    87.475
   02/06/2018 04:30:00      2.866     0.000     0.726    87.726
   02/06/2018 04:45:00      3.243     0.000     0.771    87.771
   02/06/2018 05:00:00      3.471     0.000     0.796    87.796
   02/06/2018 05:15:00      3.471     0.000     0.796    87.796
   02/06/2018 05:30:00      3.471     0.000     0.796    87.796
   02/06/2018 05:45:00      3.471     0.000     0.796    87.796
   02/06/2018 06:00:00      3.471     0.000     0.796    87.796
   02/06/2018 06:15:00      3.471     0.000     0.796    87.796
   02/06/2018 06:30:00      3.471     0.000     0.796    87.796
   02/06/2018 06:45:00      3.471     0.000     0.796    87.796
   02/06/2018 07:00:00      3.471     0.000     0.796    87.796
   02/06/2018 07:15:00      3.471     0.000     0.796    87.796
   02/06/2018 07:30:00      3.471     0.000     0.796    87.796
   02/06/2018 07:45:00      3.471     0.000     0.796    87.796
   02/06/2018 08:00:00      3.471     0.000     0.796    87.796
   02/06/2018 08:15:00      3.471     0.000     0.796    87.796
   02/06/2018 08:30:00      3.471     0.000     0.796    87.796
   02/06/2018 08:45:00      3.463     0.000     0.795    87.795
   02/06/2018 09:00:00      3.326     0.000     0.780    87.780
   02/06/2018 09:15:00      3.173     0.000     0.763    87.763
   02/06/2018 09:30:00      3.016     0.000     0.744    87.744
   02/06/2018 09:45:00      2.832     0.000     0.721    87.721
   02/06/2018 10:00:00      2.675     0.000     0.701    87.701
   02/06/2018 10:15:00      2.486     0.000     0.675    87.675
   02/06/2018 10:30:00      2.061     0.000     0.613    87.613
   02/06/2018 10:45:00      1.745     0.000     0.562    87.562
   02/06/2018 11:00:00      1.496     0.000     0.518    87.518
   02/06/2018 11:15:00      1.295     0.000     0.481    87.481
   02/06/2018 11:30:00      1.130     0.000     0.447    87.447
   02/06/2018 11:45:00      0.994     0.000     0.418    87.418
   02/06/2018 12:00:00      0.881     0.000     0.393    87.393
   02/06/2018 12:15:00      0.785     0.000     0.370    87.370
   02/06/2018 12:30:00      0.704     0.000     0.349    87.349
   02/06/2018 12:45:00      0.634     0.000     0.331    87.331
   02/06/2018 13:00:00      0.574     0.000     0.314    87.314
   02/06/2018 13:15:00      0.521     0.000     0.299    87.299
   02/06/2018 13:30:00      0.476     0.000     0.285    87.285
   02/06/2018 13:45:00      0.435     0.000     0.273    87.273
   02/06/2018 14:00:00      0.400     0.000     0.261    87.261
  
  
  <<< Node St1 >>>
  ----------------------------------------------------------------
                           Inflow  Flooding     Depth      Head
  Date        Time            CFS       CFS      feet      feet
  ----------------------------------------------------------------
   02/06/2018 00:15:00      0.000     0.000     0.750    90.750
   02/06/2018 00:30:00      0.000     0.000     0.750    90.750
   02/06/2018 00:45:00      0.000     0.000     0.750    90.750
   02/06/2018 01:00:00      0.000     0.000     0.750    90.750
   02/06/2018 01:15:00      0.113     0.000     0.751    90.751
   02/06/2018 01:30:00      0.937     0.000     0.761    90.761
   02/06/2018 01:45:00      2.207     0.000     0.796    90.796
   02/06/2018 02:00:00      3.538     0.000     0.861    90.861
   02/06/2018 02:15:00      6.868     0.000     0.976    90.976
   02/06/2018 02:30:00     10.024     0.000     1.167    91.167
   02/06/2018 02:45:00     12.474     0.000     1.421    91.421
   02/06/2018 03:00:00     14.228     0.000     1.723    91.723
   02/06/2018 03:15:00     14.274     0.000     2.045    92.045
   02/06/2018 03:30:00     14.219     0.000     2.366    92.366
   02/06/2018 03:45:00     14.184     0.000     2.685    92.685
   02/06/2018 04:00:00     14.161     0.000     3.004    93.004
   02/06/2018 04:15:00     12.475     0.000     3.288    93.288
   02/06/2018 04:30:00     11.281     0.000     3.500    93.500
   02/06/2018 04:45:00     10.501     0.000     3.674    93.674
   02/06/2018 05:00:00      9.979     0.000     3.824    93.824
   02/06/2018 05:15:00      8.404     0.000     3.944    93.944
   02/06/2018 05:30:00      7.270     0.000     4.029    94.029
   02/06/2018 05:45:00      6.493     0.000     4.092    94.092
   02/06/2018 06:00:00      5.946     0.000     4.139    94.139
   02/06/2018 06:15:00      4.565     0.000     4.165    94.165
   02/06/2018 06:30:00      3.536     0.000     4.163    94.163
   02/06/2018 06:45:00      2.805     0.000     4.141    94.141
   02/06/2018 07:00:00      2.269     0.000     4.106    94.106
   02/06/2018 07:15:00      1.866     0.000     4.061    94.061
   02/06/2018 07:30:00      1.557     0.000     4.008    94.008
   02/06/2018 07:45:00      1.315     0.000     3.950    93.950
   02/06/2018 08:00:00      1.122     0.000     3.889    93.889
   02/06/2018 08:15:00      0.968     0.000     3.827    93.827
   02/06/2018 08:30:00      0.840     0.000     3.765    93.765
   02/06/2018 08:45:00      0.736     0.000     3.704    93.704
   02/06/2018 09:00:00      0.648     0.000     3.644    93.644
   02/06/2018 09:15:00      0.575     0.000     3.585    93.585
   02/06/2018 09:30:00      0.513     0.000     3.528    93.528
   02/06/2018 09:45:00      0.459     0.000     3.474    93.474
   02/06/2018 10:00:00      0.414     0.000     3.422    93.422
   02/06/2018 10:15:00      0.374     0.000     3.373    93.373
   02/06/2018 10:30:00      0.339     0.000     3.332    93.332
   02/06/2018 10:45:00      0.309     0.000     3.298    93.298
   02/06/2018 11:00:00      0.283     0.000     3.269    93.269
   02/06/2018 11:15:00      0.259     0.000     3.245    93.245
   02/06/2018 11:30:00      0.238     0.000     3.224    93.224
   02/06/2018 11:45:00      0.220     0.000     3.206    93.206
   02/06/2018 12:00:00      0.203     0.000     3.190    93.190
   02/06/2018 12:15:00      0.188     0.000     3.176    93.176
   02/06/2018 12:30:00      0.175     0.000     3.163    93.163
   02/06/2018 12:45:00      0.163     0.000     3.152    93.152
   02/06/2018 13:00:00      0.152     0.000     3.143    93.143
   02/06/2018 13:15:00      0.142     0.000     3.134    93.134
   02/06/2018 13:30:00      0.133     0.000     3.126    93.126
   02/06/2018 13:45:00      0.124     0.000     3.119    93.119
   02/06/2018 14:00:00      0.117     0.000     3.112    93.112
  
  
  ************
  Link Results
  ************
  
  <<< Link C1 >>>
  ----------------------------------------------------------------
                             Flow  Velocity     Depth  Capacity/
  Date        Time            CFS    ft/sec      feet   Setting 
  ----------------------------------------------------------------
   02/06/2018 00:15:00      0.000     0.000     0.000     0.000
   02/06/2018 00:30:00      0.000     0.000     0.000     0.000
   02/06/2018 00:45:00      0.000     0.000     0.000     0.000
   02/06/2018 01:00:00      0.000     0.000     0.000     0.000
   02/06/2018 01:15:00      0.113     1.483     0.120     0.024
   02/06/2018 01:30:00      0.937     2.647     0.340     0.113
   02/06/2018 01:45:00      2.207     3.385     0.522     0.207
   02/06/2018 02:00:00      3.538     3.875     0.665     0.291
   02/06/2018 02:15:00      6.868     4.680     0.948     0.467
   02/06/2018 02:30:00     10.024     5.242     1.172     0.609
   02/06/2018 02:45:00     12.474     5.603     1.334     0.709
   02/06/2018 03:00:00     14.228     5.826     1.452     0.777
   02/06/2018 03:15:00     14.274     5.839     1.453     0.778
   02/06/2018 03:30:00     14.219     5.833     1.449     0.776
   02/06/2018 03:45:00     14.184     5.829     1.447     0.775
   02/06/2018 04:00:00     14.161     5.826     1.445     0.774
   02/06/2018 04:15:00     12.475     5.624     1.330     0.706
   02/06/2018 04:30:00     11.281     5.454     1.252     0.658
   02/06/2018 04:45:00     10.501     5.339     1.200     0.626
   02/06/2018 05:00:00      9.979     5.257     1.165     0.604
   02/06/2018 05:15:00      8.404     5.002     1.055     0.535
   02/06/2018 05:30:00      7.270     4.791     0.973     0.483
   02/06/2018 05:45:00      6.493     4.636     0.915     0.446
   02/06/2018 06:00:00      5.946     4.518     0.872     0.419
   02/06/2018 06:15:00      4.565     4.197     0.756     0.346
   02/06/2018 06:30:00      3.536     3.899     0.661     0.289
   02/06/2018 06:45:00      2.805     3.650     0.587     0.245
   02/06/2018 07:00:00      2.269     3.438     0.526     0.210
   02/06/2018 07:15:00      1.866     3.249     0.477     0.183
   02/06/2018 07:30:00      1.557     3.091     0.435     0.160
   02/06/2018 07:45:00      1.315     2.941     0.400     0.142
   02/06/2018 08:00:00      1.122     2.819     0.369     0.127
   02/06/2018 08:15:00      0.968     2.699     0.343     0.114
   02/06/2018 08:30:00      0.840     2.590     0.320     0.103
   02/06/2018 08:45:00      0.736     2.501     0.299     0.094
   02/06/2018 09:00:00      0.648     2.418     0.281     0.085
   02/06/2018 09:15:00      0.575     2.330     0.265     0.079
   02/06/2018 09:30:00      0.513     2.248     0.251     0.073
   02/06/2018 09:45:00      0.459     2.183     0.237     0.067
   02/06/2018 10:00:00      0.414     2.124     0.225     0.062
   02/06/2018 10:15:00      0.374     2.069     0.214     0.058
   02/06/2018 10:30:00      0.339     2.016     0.204     0.054
   02/06/2018 10:45:00      0.309     1.961     0.195     0.050
   02/06/2018 11:00:00      0.283     1.906     0.187     0.047
   02/06/2018 11:15:00      0.259     1.854     0.179     0.044
   02/06/2018 11:30:00      0.238     1.805     0.173     0.042
   02/06/2018 11:45:00      0.220     1.758     0.167     0.040
   02/06/2018 12:00:00      0.203     1.733     0.160     0.037
   02/06/2018 12:15:00      0.188     1.700     0.153     0.035
   02/06/2018 12:30:00      0.175     1.670     0.147     0.033
   02/06/2018 12:45:00      0.163     1.642     0.142     0.032
   02/06/2018 13:00:00      0.152     1.615     0.137     0.030
   02/06/2018 13:15:00      0.142     1.588     0.132     0.028
   02/06/2018 13:30:00      0.133     1.563     0.128     0.027
   02/06/2018 13:45:00      0.124     1.539     0.124     0.026
   02/06/2018 14:00:00      0.117     1.516     0.120     0.025
  
  
  <<< Link C2 >>>
  ----------------------------------------------------------------
                             Flow  Velocity     Depth  Capacity/
  Date        Time            CFS    ft/sec      feet   Setting 
  ----------------------------------------------------------------
   02/06/2018 00:15:00      0.000     0.000     0.000     0.000
   02/06/2018 00:30:00      0.000     0.000     0.000     0.000
   02/06/2018 00:45:00      0.000     0.000     0.000     0.000
   02/06/2018 01:00:00      0.000     0.000     0.000     0.000
   02/06/2018 01:15:00      0.000     0.000     0.000     0.000
   02/06/2018 01:30:00      0.000     0.000     0.000     0.000
   02/06/2018 01:45:00      0.000     0.000     0.000     0.000
   02/06/2018 02:00:00      0.000     0.000     0.000     0.000
   02/06/2018 02:15:00      0.000     0.000     0.000     0.000
   02/06/2018 02:30:00      0.000     0.000     0.000     0.000
   02/06/2018 02:45:00      0.000     0.000     0.000     0.000
   02/06/2018 03:00:00      0.000     0.000     0.000     0.000
   02/06/2018 03:15:00      0.000     0.000     0.000     0.000
   02/06/2018 03:30:00      0.000     0.000     0.000     0.000
   02/06/2018 03:45:00      0.000     0.000     0.000     0.000
   02/06/2018 04:00:00      0.000     0.000     0.000     0.000
   02/06/2018 04:15:00      1.517     3.727     0.514     0.518
   02/06/2018 04:30:00      2.869     3.979     0.864     0.918
   02/06/2018 04:45:00      3.246     4.133     1.000     1.000
   02/06/2018 05:00:00      3.671     4.674     1.000     1.000
   02/06/2018 05:15:00      3.947     5.025     1.000     1.000
   02/06/2018 05:30:00      4.045     5.150     1.000     1.000
   02/06/2018 05:45:00      4.077     5.191     1.000     1.000
   02/06/2018 06:00:00      4.101     5.221     1.000     1.000
   02/06/2018 06:15:00      4.114     5.238     1.000     1.000
   02/06/2018 06:30:00      4.114     5.238     1.000     1.000
   02/06/2018 06:45:00      4.103     5.225     1.000     1.000
   02/06/2018 07:00:00      4.086     5.203     1.000     1.000
   02/06/2018 07:15:00      4.064     5.174     1.000     1.000
   02/06/2018 07:30:00      4.038     5.141     1.000     1.000
   02/06/2018 07:45:00      4.006     5.101     1.000     1.000
   02/06/2018 08:00:00      3.883     4.944     1.000     1.000
   02/06/2018 08:15:00      3.746     4.770     1.000     1.000
   02/06/2018 08:30:00      3.604     4.588     1.000     1.000
   02/06/2018 08:45:00      3.463     4.409     1.000     1.000
   02/06/2018 09:00:00      3.325     4.234     1.000     1.000
   02/06/2018 09:15:00      3.172     4.038     1.000     1.000
   02/06/2018 09:30:00      3.015     3.839     1.000     1.000
   02/06/2018 09:45:00      2.830     3.943     0.859     0.914
   02/06/2018 10:00:00      2.669     3.779     0.843     0.899
   02/06/2018 10:15:00      2.401     3.677     0.775     0.832
   02/06/2018 10:30:00      2.015     3.676     0.658     0.698
   02/06/2018 10:45:00      1.712     3.578     0.586     0.609
   02/06/2018 11:00:00      1.469     3.464     0.531     0.540
   02/06/2018 11:15:00      1.273     3.351     0.487     0.484
   02/06/2018 11:30:00      1.112     3.241     0.450     0.437
   02/06/2018 11:45:00      0.979     3.135     0.419     0.398
   02/06/2018 12:00:00      0.868     3.038     0.392     0.364
   02/06/2018 12:15:00      0.774     2.945     0.368     0.335
   02/06/2018 12:30:00      0.694     2.858     0.348     0.309
   02/06/2018 12:45:00      0.625     2.777     0.329     0.287
   02/06/2018 13:00:00      0.566     2.700     0.312     0.267
   02/06/2018 13:15:00      0.514     2.628     0.297     0.249
   02/06/2018 13:30:00      0.469     2.561     0.284     0.233
   02/06/2018 13:45:00      0.430     2.496     0.271     0.219
   02/06/2018 14:00:00      0.395     2.435     0.260     0.206
  
  
  <<< Link C3 >>>
  ----------------------------------------------------------------
                             Flow  Velocity     Depth  Capacity/
  Date        Time            CFS    ft/sec      feet   Setting 
  ----------------------------------------------------------------
   02/06/2018 00:15:00      0.000     0.000     0.000     0.000
   02/06/2018 00:30:00      0.000     0.000     0.000     0.000
   02/06/2018 00:45:00      0.000     0.000     0.000     0.000
   02/06/2018 01:00:00      0.000     0.000     0.000     0.000
   02/06/2018 01:15:00      0.000     0.000     0.000     0.000
   02/06/2018 01:30:00      0.000     0.000     0.000     0.000
   02/06/2018 01:45:00      0.000     0.000     0.000     0.000
   02/06/2018 02:00:00      0.000     0.000     0.000     0.000
   02/06/2018 02:15:00      0.000     0.000     0.000     0.000
   02/06/2018 02:30:00      0.000     0.000     0.000     0.000
   02/06/2018 02:45:00      0.000     0.000     0.000     0.000
   02/06/2018 03:00:00      0.000     0.000     0.000     0.000
   02/06/2018 03:15:00      0.000     0.000     0.000     0.000
   02/06/2018 03:30:00      0.000     0.000     0.000     0.000
   02/06/2018 03:45:00      0.000     0.000     0.000     0.000
   02/06/2018 04:00:00      0.000     0.000     0.000     0.000
   02/06/2018 04:15:00      1.268     3.140     0.511     0.514
   02/06/2018 04:30:00      2.866     3.978     0.863     0.917
   02/06/2018 04:45:00      3.243     4.410     0.885     0.936
   02/06/2018 05:00:00      3.471     4.670     0.898     0.946
   02/06/2018 05:15:00      3.471     4.670     0.898     0.946
   02/06/2018 05:30:00      3.471     4.670     0.898     0.946
   02/06/2018 05:45:00      3.471     4.670     0.898     0.946
   02/06/2018 06:00:00      3.471     4.670     0.898     0.946
   02/06/2018 06:15:00      3.471     4.670     0.898     0.946
   02/06/2018 06:30:00      3.471     4.670     0.898     0.946
   02/06/2018 06:45:00      3.471     4.670     0.898     0.946
   02/06/2018 07:00:00      3.471     4.670     0.898     0.946
   02/06/2018 07:15:00      3.471     4.670     0.898     0.946
   02/06/2018 07:30:00      3.471     4.670     0.898     0.946
   02/06/2018 07:45:00      3.471     4.670     0.898     0.946
   02/06/2018 08:00:00      3.471     4.670     0.898     0.946
   02/06/2018 08:15:00      3.471     4.670     0.898     0.946
   02/06/2018 08:30:00      3.471     4.670     0.898     0.946
   02/06/2018 08:45:00      3.463     4.662     0.898     0.946
   02/06/2018 09:00:00      3.326     4.506     0.890     0.940
   02/06/2018 09:15:00      3.173     4.329     0.881     0.933
   02/06/2018 09:30:00      3.016     4.151     0.872     0.925
   02/06/2018 09:45:00      2.832     3.938     0.861     0.916
   02/06/2018 10:00:00      2.675     3.759     0.850     0.906
   02/06/2018 10:15:00      2.486     3.714     0.795     0.852
   02/06/2018 10:30:00      2.061     3.617     0.681     0.726
   02/06/2018 10:45:00      1.745     3.474     0.611     0.640
   02/06/2018 11:00:00      1.496     3.334     0.556     0.571
   02/06/2018 11:15:00      1.295     3.205     0.511     0.514
   02/06/2018 11:30:00      1.130     3.087     0.473     0.466
   02/06/2018 11:45:00      0.994     2.979     0.441     0.425
   02/06/2018 12:00:00      0.881     2.877     0.413     0.390
   02/06/2018 12:15:00      0.785     2.786     0.388     0.359
   02/06/2018 12:30:00      0.704     2.701     0.366     0.332
   02/06/2018 12:45:00      0.634     2.623     0.346     0.308
   02/06/2018 13:00:00      0.574     2.548     0.329     0.287
   02/06/2018 13:15:00      0.521     2.481     0.313     0.267
   02/06/2018 13:30:00      0.476     2.416     0.299     0.251
   02/06/2018 13:45:00      0.435     2.357     0.285     0.235
   02/06/2018 14:00:00      0.400     2.302     0.273     0.221
  
  
  <<< Link R1 >>>
  ----------------------------------------------------------------
                             Flow  Velocity     Depth  Capacity/
  Date        Time            CFS    ft/sec      feet   Setting 
  ----------------------------------------------------------------
   02/06/2018 00:15:00      0.000     0.000     0.000     1.000
   02/06/2018 00:30:00      0.000     0.000     0.000     1.000
   02/06/2018 00:45:00      0.000     0.000     0.000     1.000
   02/06/2018 01:00:00      0.000     0.000     0.000     1.000
   02/06/2018 01:15:00      0.000     0.000     0.000     1.000
   02/06/2018 01:30:00      0.000     0.000     0.000     1.000
   02/06/2018 01:45:00      0.000     0.000     0.000     1.000
   02/06/2018 02:00:00      0.000     0.000     0.000     1.000
   02/06/2018 02:15:00      0.000     0.000     0.000     1.000
   02/06/2018 02:30:00      0.000     0.000     0.000     1.000
   02/06/2018 02:45:00      0.000     0.000     0.000     1.000
   02/06/2018 03:00:00      0.000     0.000     0.000     1.000
   02/06/2018 03:15:00      0.000     0.000     0.000     1.000
   02/06/2018 03:30:00      0.000     0.000     0.000     1.000
   02/06/2018 03:45:00      0.000     0.000     0.000     1.000
   02/06/2018 04:00:00      0.001     0.000     1.000     1.000
   02/06/2018 04:15:00      1.606     0.000     1.000     1.000
   02/06/2018 04:30:00      2.894     0.000     1.000     1.000
   02/06/2018 04:45:00      3.361     0.000     1.000     1.000
   02/06/2018 05:00:00      3.717     0.000     1.000     1.000
   02/06/2018 05:15:00      3.980     0.000     1.000     1.000
   02/06/2018 05:30:00      4.050     0.000     1.000     1.000
   02/06/2018 05:45:00      4.081     0.000     1.000     1.000
   02/06/2018 06:00:00      4.104     0.000     1.000     1.000
   02/06/2018 06:15:00      4.115     0.000     1.000     1.000
   02/06/2018 06:30:00      4.113     0.000     1.000     1.000
   02/06/2018 06:45:00      4.101     0.000     1.000     1.000
   02/06/2018 07:00:00      4.083     0.000     1.000     1.000
   02/06/2018 07:15:00      4.060     0.000     1.000     1.000
   02/06/2018 07:30:00      4.033     0.000     1.000     1.000
   02/06/2018 07:45:00      3.994     0.000     1.000     1.000
   02/06/2018 08:00:00      3.863     0.000     1.000     1.000
   02/06/2018 08:15:00      3.726     0.000     1.000     1.000
   02/06/2018 08:30:00      3.584     0.000     1.000     1.000
   02/06/2018 08:45:00      3.437     0.000     1.000     1.000
   02/06/2018 09:00:00      3.287     0.000     1.000     1.000
   02/06/2018 09:15:00      3.134     0.000     1.000     1.000
   02/06/2018 09:30:00      2.979     0.000     1.000     1.000
   02/06/2018 09:45:00      2.822     0.000     1.000     1.000
   02/06/2018 10:00:00      2.663     0.000     1.000     1.000
   02/06/2018 10:15:00      2.385     0.000     1.000     1.000
   02/06/2018 10:30:00      2.001     0.000     1.000     1.000
   02/06/2018 10:45:00      1.700     0.000     1.000     1.000
   02/06/2018 11:00:00      1.460     0.000     1.000     1.000
   02/06/2018 11:15:00      1.265     0.000     1.000     1.000
   02/06/2018 11:30:00      1.106     0.000     1.000     1.000
   02/06/2018 11:45:00      0.973     0.000     1.000     1.000
   02/06/2018 12:00:00      0.863     0.000     1.000     1.000
   02/06/2018 12:15:00      0.769     0.000     1.000     1.000
   02/06/2018 12:30:00      0.690     0.000     1.000     1.000
   02/06/2018 12:45:00      0.622     0.000     1.000     1.000
   02/06/2018 13:00:00      0.563     0.000     1.000     1.000
   02/06/2018 13:15:00      0.512     0.000     1.000     1.000
   02/06/2018 13:30:00      0.467     0.000     1.000     1.000
   02/06/2018 13:45:00      0.428     0.000     1.000     1.000
   02/06/2018 14:00:00      0.393     0.000     1.000     1.000
  
  
  ERROR 309: error writing to binary results file.

  Analysis begun on:  Mon Feb 12 17:14:16 2018
  Analysis ended on:  Mon Feb 12 17:14:22 2018
  Total elapsed time: 00:00:06