
  EPA STORM WATER MANAGEMENT MODEL - VERSION 5.1 (Build 5.2.0.dev1)
  --------------------------------------------------------------

  
  *********************************************************
  NOTE: The summary statistics displayed in this report are
  based on results found at every computational time step,  
  not just on results from each reporting time step.
  *********************************************************
  
  ****************
  Analysis Options
  ****************
  Flow Units ............... CFS
  Process Models:
    Rainfall/Runoff ........ YES
    RDII ................... NO
    Snowmelt ............... NO
    Groundwater ............ NO
    Flow Routing ........... YES
    Ponding Allowed ........ NO
    Water Quality .......... NO
  Infiltration Method ...... MODIFIED_GREEN_AMPT
  Flow Routing Method ...... DYNWAVE
  Starting Date ............ 02/06/2018 00:00:00
  Ending Date .............. 02/06/2018 14:00:00
  Antecedent Dry Days ...... 0.0
  Report Time Step ......... 00:05:00
  Wet Time Step ............ 00:05:00
  Dry Time Step ............ 01:00:00
  Routing Time Step ........ 10.00 sec
  Variable Time Step ....... YES
  Maximum Trials ........... 8
  Number of Threads ........ 1
  Head Tolerance ........... 0.005000 ft
  
  
  ********************
  Subcatchment Results
  ********************
  
  <<< Subcatchment S1 >>>
  ---------------------------------------------------
  Date        Time        Precip.    Losses    Runoff
                            in/hr     in/hr       CFS
  ---------------------------------------------------
   02/06/2018 00:05:00      0.000     0.000    0.0000
   02/06/2018 00:10:00      0.000     0.000    0.0000
   02/06/2018 00:15:00      0.000     0.000    0.0000
   02/06/2018 00:20:00      0.000     0.000    0.0000
   02/06/2018 00:25:00      0.000     0.000    0.0000
   02/06/2018 00:30:00      0.000     0.000    0.0000
   02/06/2018 00:35:00      0.000     0.000    0.0000
   02/06/2018 00:40:00      0.000     0.000    0.0000
   02/06/2018 00:45:00      0.000     0.000    0.0000
   02/06/2018 00:50:00      0.000     0.000    0.0000
   02/06/2018 00:55:00      0.000     0.000    0.0000
   02/06/2018 01:00:00      0.000     0.000    0.0000
   02/06/2018 01:05:00      0.000     0.000    0.0000
   02/06/2018 01:10:00      0.000     0.000    0.0000
   02/06/2018 01:15:00      0.000     0.000    0.0000
   02/06/2018 01:20:00      0.000     0.000    0.0000
   02/06/2018 01:25:00      0.000     0.000    0.0000
   02/06/2018 01:30:00      0.000     0.000    0.0000
   02/06/2018 01:35:00      0.000     0.000    0.0000
   02/06/2018 01:40:00      0.000     0.000    0.0000
   02/06/2018 01:45:00      0.000     0.000    0.0000
   02/06/2018 01:50:00      0.000     0.000    0.0000
   02/06/2018 01:55:00      0.000     0.000    0.0000
   02/06/2018 02:00:00      0.000     0.000    0.0000
   02/06/2018 02:05:00      0.000     0.000    0.0000
   02/06/2018 02:10:00      0.000     0.000    0.0000
   02/06/2018 02:15:00      0.000     0.000    0.0000
   02/06/2018 02:20:00      0.000     0.000    0.0000
   02/06/2018 02:25:00      0.000     0.000    0.0000
   02/06/2018 02:30:00      0.000     0.000    0.0000
   02/06/2018 02:35:00      0.000     0.000    0.0000
   02/06/2018 02:40:00      0.000     0.000    0.0000
   02/06/2018 02:45:00      0.000     0.000    0.0000
   02/06/2018 02:50:00      0.000     0.000    0.0000
   02/06/2018 02:55:00      0.000     0.000    0.0000
   02/06/2018 03:00:00      0.000     0.000    0.0000
   02/06/2018 03:05:00      0.000     0.000    0.0000
   02/06/2018 03:10:00      0.000     0.000    0.0000
   02/06/2018 03:15:00      0.000     0.000    0.0000
   02/06/2018 03:20:00      0.000     0.000    0.0000
   02/06/2018 03:25:00      0.000     0.000    0.0000
   02/06/2018 03:30:00      0.000     0.000    0.0000
   02/06/2018 03:35:00      0.000     0.000    0.0000
   02/06/2018 03:40:00      0.000     0.000    0.0000
   02/06/2018 03:45:00      0.000     0.000    0.0000
   02/06/2018 03:50:00      0.000     0.000    0.0000
   02/06/2018 03:55:00      0.000     0.000    0.0000
   02/06/2018 04:00:00      0.250     0.125    0.0000
   02/06/2018 04:05:00      0.250     0.125    0.0000
   02/06/2018 04:10:00      0.250     0.125    0.0819
   02/06/2018 04:15:00      0.250     0.125    0.1912
   02/06/2018 04:20:00      0.250     0.125    0.4181
   02/06/2018 04:25:00      0.250     0.125    0.7233
   02/06/2018 04:30:00      0.250     0.125    1.0842
   02/06/2018 04:35:00      0.250     0.125    1.4842
   02/06/2018 04:40:00      0.250     0.125    1.9095
   02/06/2018 04:45:00      0.250     0.125    2.3486
   02/06/2018 04:50:00      0.250     0.125    2.7918
   02/06/2018 04:55:00      0.250     0.125    3.2315
   02/06/2018 05:00:00      0.500     0.250    3.6614
   02/06/2018 05:05:00      0.500     0.250    4.8286
   02/06/2018 05:10:00      0.500     0.250    6.0041
   02/06/2018 05:15:00      0.500     0.250    7.1546
   02/06/2018 05:20:00      0.500     0.250    8.2558
   02/06/2018 05:25:00      0.500     0.250    9.2912
   02/06/2018 05:30:00      0.500     0.250   10.2508
   02/06/2018 05:35:00      0.500     0.250   11.1295
   02/06/2018 05:40:00      0.500     0.250   11.9261
   02/06/2018 05:45:00      0.500     0.250   12.6421
   02/06/2018 05:50:00      0.500     0.250   13.2813
   02/06/2018 05:55:00      0.500     0.250   13.8484
   02/06/2018 06:00:00      0.400     0.200   14.3490
   02/06/2018 06:05:00      0.400     0.200   14.3182
   02/06/2018 06:10:00      0.400     0.200   14.2915
   02/06/2018 06:15:00      0.400     0.200   14.2683
   02/06/2018 06:20:00      0.400     0.200   14.2483
   02/06/2018 06:25:00      0.400     0.200   14.2309
   02/06/2018 06:30:00      0.400     0.200   14.2158
   02/06/2018 06:35:00      0.400     0.200   14.2028
   02/06/2018 06:40:00      0.400     0.200   14.1915
   02/06/2018 06:45:00      0.400     0.200   14.1816
   02/06/2018 06:50:00      0.400     0.200   14.1731
   02/06/2018 06:55:00      0.400     0.200   14.1657
   02/06/2018 07:00:00      0.250     0.125   14.1593
   02/06/2018 07:05:00      0.250     0.125   13.4615
   02/06/2018 07:10:00      0.250     0.125   12.8657
   02/06/2018 07:15:00      0.250     0.125   12.3546
   02/06/2018 07:20:00      0.250     0.125   11.9146
   02/06/2018 07:25:00      0.250     0.125   11.5342
   02/06/2018 07:30:00      0.250     0.125   11.2045
   02/06/2018 07:35:00      0.250     0.125   10.9179
   02/06/2018 07:40:00      0.250     0.125   10.6680
   02/06/2018 07:45:00      0.250     0.125   10.4498
   02/06/2018 07:50:00      0.250     0.125   10.2588
   02/06/2018 07:55:00      0.250     0.125   10.0913
   02/06/2018 08:00:00      0.125     0.063    9.9442
   02/06/2018 08:05:00      0.125     0.063    9.3122
   02/06/2018 08:10:00      0.125     0.063    8.7655
   02/06/2018 08:15:00      0.125     0.063    8.2903
   02/06/2018 08:20:00      0.125     0.063    7.8754
   02/06/2018 08:25:00      0.125     0.063    7.5118
   02/06/2018 08:30:00      0.125     0.063    7.1918
   02/06/2018 08:35:00      0.125     0.063    6.9094
   02/06/2018 08:40:00      0.125     0.063    6.6594
   02/06/2018 08:45:00      0.125     0.063    6.4374
   02/06/2018 08:50:00      0.125     0.063    6.2397
   02/06/2018 08:55:00      0.125     0.063    6.0634
   02/06/2018 09:00:00      0.000     0.000    5.9057
   02/06/2018 09:05:00      0.000     0.000    5.3551
   02/06/2018 09:10:00      0.000     0.000    4.8738
   02/06/2018 09:15:00      0.000     0.000    4.4510
   02/06/2018 09:20:00      0.000     0.000    4.0778
   02/06/2018 09:25:00      0.000     0.000    3.7469
   02/06/2018 09:30:00      0.000     0.000    3.4525
   02/06/2018 09:35:00      0.000     0.000    3.1894
   02/06/2018 09:40:00      0.000     0.000    2.9536
   02/06/2018 09:45:00      0.000     0.000    2.7415
   02/06/2018 09:50:00      0.000     0.000    2.5501
   02/06/2018 09:55:00      0.000     0.000    2.3769
   02/06/2018 10:00:00      0.000     0.000    2.2198
   02/06/2018 10:05:00      0.000     0.000    2.0768
   02/06/2018 10:10:00      0.000     0.000    1.9464
   02/06/2018 10:15:00      0.000     0.000    1.8271
   02/06/2018 10:20:00      0.000     0.000    1.7179
   02/06/2018 10:25:00      0.000     0.000    1.6176
   02/06/2018 10:30:00      0.000     0.000    1.5253
   02/06/2018 10:35:00      0.000     0.000    1.4402
   02/06/2018 10:40:00      0.000     0.000    1.3616
   02/06/2018 10:45:00      0.000     0.000    1.2888
   02/06/2018 10:50:00      0.000     0.000    1.2215
   02/06/2018 10:55:00      0.000     0.000    1.1589
   02/06/2018 11:00:00      0.000     0.000    1.1007
   02/06/2018 11:05:00      0.000     0.000    1.0466
   02/06/2018 11:10:00      0.000     0.000    0.9961
   02/06/2018 11:15:00      0.000     0.000    0.9489
   02/06/2018 11:20:00      0.000     0.000    0.9048
   02/06/2018 11:25:00      0.000     0.000    0.8635
   02/06/2018 11:30:00      0.000     0.000    0.8249
   02/06/2018 11:35:00      0.000     0.000    0.7886
   02/06/2018 11:40:00      0.000     0.000    0.7545
   02/06/2018 11:45:00      0.000     0.000    0.7224
   02/06/2018 11:50:00      0.000     0.000    0.6922
   02/06/2018 11:55:00      0.000     0.000    0.6637
   02/06/2018 12:00:00      0.000     0.000    0.6369
   02/06/2018 12:05:00      0.000     0.000    0.6115
   02/06/2018 12:10:00      0.000     0.000    0.5876
   02/06/2018 12:15:00      0.000     0.000    0.5649
   02/06/2018 12:20:00      0.000     0.000    0.5434
   02/06/2018 12:25:00      0.000     0.000    0.5231
   02/06/2018 12:30:00      0.000     0.000    0.5038
   02/06/2018 12:35:00      0.000     0.000    0.4855
   02/06/2018 12:40:00      0.000     0.000    0.4681
   02/06/2018 12:45:00      0.000     0.000    0.4516
   02/06/2018 12:50:00      0.000     0.000    0.4359
   02/06/2018 12:55:00      0.000     0.000    0.4209
   02/06/2018 13:00:00      0.000     0.000    0.4066
   02/06/2018 13:05:00      0.000     0.000    0.3931
   02/06/2018 13:10:00      0.000     0.000    0.3801
   02/06/2018 13:15:00      0.000     0.000    0.3677
   02/06/2018 13:20:00      0.000     0.000    0.3559
   02/06/2018 13:25:00      0.000     0.000    0.3446
   02/06/2018 13:30:00      0.000     0.000    0.3338
   02/06/2018 13:35:00      0.000     0.000    0.3235
   02/06/2018 13:40:00      0.000     0.000    0.3136
   02/06/2018 13:45:00      0.000     0.000    0.3041
   02/06/2018 13:50:00      0.000     0.000    0.2951
   02/06/2018 13:55:00      0.000     0.000    0.2864
   02/06/2018 14:00:00      0.000     0.000    0.2780
  
  
  ************
  Node Results
  ************
  
  <<< Node J1 >>>
  ----------------------------------------------------------------
                           Inflow  Flooding     Depth      Head
  Date        Time            CFS       CFS      feet      feet
  ----------------------------------------------------------------
   02/06/2018 00:05:00      0.000     0.000     0.000    96.000
   02/06/2018 00:10:00      0.000     0.000     0.000    96.000
   02/06/2018 00:15:00      0.000     0.000     0.000    96.000
   02/06/2018 00:20:00      0.000     0.000     0.000    96.000
   02/06/2018 00:25:00      0.000     0.000     0.000    96.000
   02/06/2018 00:30:00      0.000     0.000     0.000    96.000
   02/06/2018 00:35:00      0.000     0.000     0.000    96.000
   02/06/2018 00:40:00      0.000     0.000     0.000    96.000
   02/06/2018 00:45:00      0.000     0.000     0.000    96.000
   02/06/2018 00:50:00      0.000     0.000     0.000    96.000
   02/06/2018 00:55:00      0.000     0.000     0.000    96.000
   02/06/2018 01:00:00      0.000     0.000     0.000    96.000
   02/06/2018 01:05:00      0.000     0.000     0.000    96.000
   02/06/2018 01:10:00      0.000     0.000     0.000    96.000
   02/06/2018 01:15:00      0.000     0.000     0.000    96.000
   02/06/2018 01:20:00      0.000     0.000     0.000    96.000
   02/06/2018 01:25:00      0.000     0.000     0.000    96.000
   02/06/2018 01:30:00      0.000     0.000     0.000    96.000
   02/06/2018 01:35:00      0.000     0.000     0.000    96.000
   02/06/2018 01:40:00      0.000     0.000     0.000    96.000
   02/06/2018 01:45:00      0.000     0.000     0.000    96.000
   02/06/2018 01:50:00      0.000     0.000     0.000    96.000
   02/06/2018 01:55:00      0.000     0.000     0.000    96.000
   02/06/2018 02:00:00      0.000     0.000     0.000    96.000
   02/06/2018 02:05:00      0.000     0.000     0.000    96.000
   02/06/2018 02:10:00      0.000     0.000     0.000    96.000
   02/06/2018 02:15:00      0.000     0.000     0.000    96.000
   02/06/2018 02:20:00      0.000     0.000     0.000    96.000
   02/06/2018 02:25:00      0.000     0.000     0.000    96.000
   02/06/2018 02:30:00      0.000     0.000     0.000    96.000
   02/06/2018 02:35:00      0.000     0.000     0.000    96.000
   02/06/2018 02:40:00      0.000     0.000     0.000    96.000
   02/06/2018 02:45:00      0.000     0.000     0.000    96.000
   02/06/2018 02:50:00      0.000     0.000     0.000    96.000
   02/06/2018 02:55:00      0.000     0.000     0.000    96.000
   02/06/2018 03:00:00      0.000     0.000     0.000    96.000
   02/06/2018 03:05:00      0.000     0.000     0.000    96.000
   02/06/2018 03:10:00      0.000     0.000     0.000    96.000
   02/06/2018 03:15:00      0.000     0.000     0.000    96.000
   02/06/2018 03:20:00      0.000     0.000     0.000    96.000
   02/06/2018 03:25:00      0.000     0.000     0.000    96.000
   02/06/2018 03:30:00      0.000     0.000     0.000    96.000
   02/06/2018 03:35:00      0.000     0.000     0.000    96.000
   02/06/2018 03:40:00      0.000     0.000     0.000    96.000
   02/06/2018 03:45:00      0.000     0.000     0.000    96.000
   02/06/2018 03:50:00      0.000     0.000     0.000    96.000
   02/06/2018 03:55:00      0.000     0.000     0.000    96.000
   02/06/2018 04:00:00      0.000     0.000     0.000    96.000
   02/06/2018 04:05:00      0.025     0.000     0.034    96.034
   02/06/2018 04:10:00      0.080     0.000     0.078    96.078
   02/06/2018 04:15:00      0.188     0.000     0.131    96.131
   02/06/2018 04:20:00      0.411     0.000     0.202    96.202
   02/06/2018 04:25:00      0.714     0.000     0.277    96.277
   02/06/2018 04:30:00      1.073     0.000     0.348    96.348
   02/06/2018 04:35:00      1.472     0.000     0.413    96.413
   02/06/2018 04:40:00      1.896     0.000     0.473    96.473
   02/06/2018 04:45:00      2.335     0.000     0.528    96.528
   02/06/2018 04:50:00      2.778     0.000     0.580    96.580
   02/06/2018 04:55:00      3.218     0.000     0.628    96.628
   02/06/2018 05:00:00      3.648     0.000     0.672    96.672
   02/06/2018 05:05:00      4.792     0.000     0.770    96.770
   02/06/2018 05:10:00      5.967     0.000     0.873    96.873
   02/06/2018 05:15:00      7.118     0.000     0.968    96.968
   02/06/2018 05:20:00      8.221     0.000     1.056    97.056
   02/06/2018 05:25:00      9.259     0.000     1.137    97.137
   02/06/2018 05:30:00     10.221     0.000     1.211    97.211
   02/06/2018 05:35:00     11.102     0.000     1.280    97.280
   02/06/2018 05:40:00     11.901     0.000     1.342    97.342
   02/06/2018 05:45:00     12.620     0.000     1.399    97.399
   02/06/2018 05:50:00     13.261     0.000     1.452    97.452
   02/06/2018 05:55:00     13.831     0.000     1.501    97.501
   02/06/2018 06:00:00     14.333     0.000     1.545    97.545
   02/06/2018 06:05:00     14.319     0.000     1.549    97.549
   02/06/2018 06:10:00     14.292     0.000     1.547    97.547
   02/06/2018 06:15:00     14.269     0.000     1.545    97.545
   02/06/2018 06:20:00     14.249     0.000     1.543    97.543
   02/06/2018 06:25:00     14.231     0.000     1.542    97.542
   02/06/2018 06:30:00     14.216     0.000     1.540    97.540
   02/06/2018 06:35:00     14.203     0.000     1.539    97.539
   02/06/2018 06:40:00     14.192     0.000     1.538    97.538
   02/06/2018 06:45:00     14.182     0.000     1.537    97.537
   02/06/2018 06:50:00     14.173     0.000     1.536    97.536
   02/06/2018 06:55:00     14.166     0.000     1.536    97.536
   02/06/2018 07:00:00     14.160     0.000     1.535    97.535
   02/06/2018 07:05:00     13.484     0.000     1.484    97.484
   02/06/2018 07:10:00     12.884     0.000     1.433    97.433
   02/06/2018 07:15:00     12.371     0.000     1.390    97.390
   02/06/2018 07:20:00     11.928     0.000     1.354    97.354
   02/06/2018 07:25:00     11.545     0.000     1.324    97.324
   02/06/2018 07:30:00     11.214     0.000     1.298    97.298
   02/06/2018 07:35:00     10.926     0.000     1.276    97.276
   02/06/2018 07:40:00     10.675     0.000     1.256    97.256
   02/06/2018 07:45:00     10.456     0.000     1.239    97.239
   02/06/2018 07:50:00     10.264     0.000     1.224    97.224
   02/06/2018 07:55:00     10.096     0.000     1.211    97.211
   02/06/2018 08:00:00      9.948     0.000     1.199    97.199
   02/06/2018 08:05:00      9.330     0.000     1.156    97.156
   02/06/2018 08:10:00      8.781     0.000     1.114    97.114
   02/06/2018 08:15:00      8.304     0.000     1.076    97.076
   02/06/2018 08:20:00      7.887     0.000     1.044    97.044
   02/06/2018 08:25:00      7.522     0.000     1.015    97.015
   02/06/2018 08:30:00      7.201     0.000     0.989    96.989
   02/06/2018 08:35:00      6.917     0.000     0.966    96.966
   02/06/2018 08:40:00      6.666     0.000     0.946    96.946
   02/06/2018 08:45:00      6.444     0.000     0.928    96.928
   02/06/2018 08:50:00      6.245     0.000     0.911    96.911
   02/06/2018 08:55:00      6.068     0.000     0.897    96.897
   02/06/2018 09:00:00      5.910     0.000     0.883    96.883
   02/06/2018 09:05:00      5.371     0.000     0.842    96.842
   02/06/2018 09:10:00      4.887     0.000     0.800    96.800
   02/06/2018 09:15:00      4.463     0.000     0.762    96.762
   02/06/2018 09:20:00      4.088     0.000     0.727    96.727
   02/06/2018 09:25:00      3.756     0.000     0.695    96.695
   02/06/2018 09:30:00      3.461     0.000     0.665    96.665
   02/06/2018 09:35:00      3.197     0.000     0.638    96.638
   02/06/2018 09:40:00      2.960     0.000     0.614    96.614
   02/06/2018 09:45:00      2.748     0.000     0.590    96.590
   02/06/2018 09:50:00      2.556     0.000     0.569    96.569
   02/06/2018 09:55:00      2.382     0.000     0.549    96.549
   02/06/2018 10:00:00      2.224     0.000     0.530    96.530
   02/06/2018 10:05:00      2.081     0.000     0.513    96.513
   02/06/2018 10:10:00      1.950     0.000     0.496    96.496
   02/06/2018 10:15:00      1.831     0.000     0.481    96.481
   02/06/2018 10:20:00      1.721     0.000     0.466    96.466
   02/06/2018 10:25:00      1.620     0.000     0.452    96.452
   02/06/2018 10:30:00      1.528     0.000     0.439    96.439
   02/06/2018 10:35:00      1.443     0.000     0.427    96.427
   02/06/2018 10:40:00      1.364     0.000     0.415    96.415
   02/06/2018 10:45:00      1.291     0.000     0.404    96.404
   02/06/2018 10:50:00      1.223     0.000     0.394    96.394
   02/06/2018 10:55:00      1.161     0.000     0.384    96.384
   02/06/2018 11:00:00      1.102     0.000     0.374    96.374
   02/06/2018 11:05:00      1.048     0.000     0.365    96.365
   02/06/2018 11:10:00      0.997     0.000     0.357    96.357
   02/06/2018 11:15:00      0.950     0.000     0.348    96.348
   02/06/2018 11:20:00      0.906     0.000     0.340    96.340
   02/06/2018 11:25:00      0.865     0.000     0.333    96.333
   02/06/2018 11:30:00      0.826     0.000     0.325    96.325
   02/06/2018 11:35:00      0.790     0.000     0.318    96.318
   02/06/2018 11:40:00      0.755     0.000     0.312    96.312
   02/06/2018 11:45:00      0.723     0.000     0.305    96.305
   02/06/2018 11:50:00      0.693     0.000     0.299    96.299
   02/06/2018 11:55:00      0.665     0.000     0.293    96.293
   02/06/2018 12:00:00      0.638     0.000     0.288    96.288
   02/06/2018 12:05:00      0.612     0.000     0.282    96.282
   02/06/2018 12:10:00      0.588     0.000     0.277    96.277
   02/06/2018 12:15:00      0.566     0.000     0.272    96.272
   02/06/2018 12:20:00      0.544     0.000     0.267    96.267
   02/06/2018 12:25:00      0.524     0.000     0.262    96.262
   02/06/2018 12:30:00      0.504     0.000     0.257    96.257
   02/06/2018 12:35:00      0.486     0.000     0.253    96.253
   02/06/2018 12:40:00      0.469     0.000     0.248    96.248
   02/06/2018 12:45:00      0.452     0.000     0.244    96.244
   02/06/2018 12:50:00      0.436     0.000     0.240    96.240
   02/06/2018 12:55:00      0.421     0.000     0.236    96.236
   02/06/2018 13:00:00      0.407     0.000     0.233    96.233
   02/06/2018 13:05:00      0.393     0.000     0.229    96.229
   02/06/2018 13:10:00      0.380     0.000     0.225    96.225
   02/06/2018 13:15:00      0.368     0.000     0.222    96.222
   02/06/2018 13:20:00      0.356     0.000     0.219    96.219
   02/06/2018 13:25:00      0.345     0.000     0.215    96.215
   02/06/2018 13:30:00      0.334     0.000     0.212    96.212
   02/06/2018 13:35:00      0.324     0.000     0.209    96.209
   02/06/2018 13:40:00      0.314     0.000     0.206    96.206
   02/06/2018 13:45:00      0.304     0.000     0.203    96.203
   02/06/2018 13:50:00      0.295     0.000     0.200    96.200
   02/06/2018 13:55:00      0.287     0.000     0.198    96.198
   02/06/2018 14:00:00      0.278     0.000     0.195    96.195
  
  
  <<< Node J2 >>>
  ----------------------------------------------------------------
                           Inflow  Flooding     Depth      Head
  Date        Time            CFS       CFS      feet      feet
  ----------------------------------------------------------------
   02/06/2018 00:05:00      1.324     0.000     0.443    90.443
   02/06/2018 00:10:00      1.295     0.000     0.438    90.438
   02/06/2018 00:15:00      1.266     0.000     0.432    90.432
   02/06/2018 00:20:00      1.239     0.000     0.427    90.427
   02/06/2018 00:25:00      1.212     0.000     0.422    90.422
   02/06/2018 00:30:00      1.186     0.000     0.417    90.417
   02/06/2018 00:35:00      1.161     0.000     0.412    90.412
   02/06/2018 00:40:00      1.136     0.000     0.407    90.407
   02/06/2018 00:45:00      1.112     0.000     0.402    90.402
   02/06/2018 00:50:00      1.089     0.000     0.398    90.398
   02/06/2018 00:55:00      1.066     0.000     0.393    90.393
   02/06/2018 01:00:00      1.044     0.000     0.389    90.389
   02/06/2018 01:05:00      1.023     0.000     0.384    90.384
   02/06/2018 01:10:00      1.002     0.000     0.380    90.380
   02/06/2018 01:15:00      0.982     0.000     0.376    90.376
   02/06/2018 01:20:00      0.962     0.000     0.372    90.372
   02/06/2018 01:25:00      0.943     0.000     0.368    90.368
   02/06/2018 01:30:00      0.924     0.000     0.364    90.364
   02/06/2018 01:35:00      0.906     0.000     0.360    90.360
   02/06/2018 01:40:00      0.888     0.000     0.356    90.356
   02/06/2018 01:45:00      0.871     0.000     0.353    90.353
   02/06/2018 01:50:00      0.854     0.000     0.349    90.349
   02/06/2018 01:55:00      0.838     0.000     0.345    90.345
   02/06/2018 02:00:00      0.822     0.000     0.342    90.342
   02/06/2018 02:05:00      0.000     0.000     0.060    90.060
   02/06/2018 02:10:00      0.000     0.000     0.029    90.029
   02/06/2018 02:15:00      0.000     0.000     0.018    90.018
   02/06/2018 02:20:00      0.000     0.000     0.013    90.013
   02/06/2018 02:25:00      0.000     0.000     0.009    90.009
   02/06/2018 02:30:00      0.000     0.000     0.007    90.007
   02/06/2018 02:35:00      0.000     0.000     0.005    90.005
   02/06/2018 02:40:00      0.000     0.000     0.004    90.004
   02/06/2018 02:45:00      0.000     0.000     0.003    90.003
   02/06/2018 02:50:00      0.000     0.000     0.002    90.002
   02/06/2018 02:55:00      0.000     0.000     0.002    90.002
   02/06/2018 03:00:00      0.000     0.000     0.001    90.001
   02/06/2018 03:05:00      0.000     0.000     0.001    90.001
   02/06/2018 03:10:00      0.000     0.000     0.001    90.001
   02/06/2018 03:15:00      0.000     0.000     0.001    90.001
   02/06/2018 03:20:00      0.000     0.000     0.000    90.000
   02/06/2018 03:25:00      0.000     0.000     0.000    90.000
   02/06/2018 03:30:00      0.000     0.000     0.000    90.000
   02/06/2018 03:35:00      0.000     0.000     0.000    90.000
   02/06/2018 03:40:00      0.000     0.000     0.000    90.000
   02/06/2018 03:45:00      0.000     0.000     0.000    90.000
   02/06/2018 03:50:00      0.000     0.000     0.000    90.000
   02/06/2018 03:55:00      0.000     0.000     0.000    90.000
   02/06/2018 04:00:00      0.000     0.000     0.000    90.000
   02/06/2018 04:05:00      0.000     0.000     0.000    90.000
   02/06/2018 04:10:00      0.000     0.000     0.000    90.000
   02/06/2018 04:15:00      0.000     0.000     0.000    90.000
   02/06/2018 04:20:00      0.000     0.000     0.000    90.000
   02/06/2018 04:25:00      0.000     0.000     0.000    90.000
   02/06/2018 04:30:00      0.000     0.000     0.000    90.000
   02/06/2018 04:35:00      0.000     0.000     0.000    90.000
   02/06/2018 04:40:00      0.000     0.000     0.000    90.000
   02/06/2018 04:45:00      0.000     0.000     0.000    90.000
   02/06/2018 04:50:00      0.000     0.000     0.000    90.000
   02/06/2018 04:55:00      0.000     0.000     0.000    90.000
   02/06/2018 05:00:00      0.000     0.000     0.000    90.000
   02/06/2018 05:05:00      0.000     0.000     0.000    90.000
   02/06/2018 05:10:00      0.000     0.000     0.000    90.000
   02/06/2018 05:15:00      0.000     0.000     0.000    90.000
   02/06/2018 05:20:00      0.000     0.000     0.000    90.000
   02/06/2018 05:25:00      0.000     0.000     0.000    90.000
   02/06/2018 05:30:00      0.000     0.000     0.000    90.000
   02/06/2018 05:35:00      0.000     0.000     0.000    90.000
   02/06/2018 05:40:00      0.000     0.000     0.000    90.000
   02/06/2018 05:45:00      0.000     0.000     0.000    90.000
   02/06/2018 05:50:00      0.000     0.000     0.000    90.000
   02/06/2018 05:55:00      0.000     0.000     0.000    90.000
   02/06/2018 06:00:00      0.000     0.000     0.000    90.000
   02/06/2018 06:05:00      0.000     0.000     0.000    90.000
   02/06/2018 06:10:00      0.000     0.000     0.000    90.000
   02/06/2018 06:15:00      0.000     0.000     0.000    90.000
   02/06/2018 06:20:00      0.000     0.000     0.000    90.000
   02/06/2018 06:25:00      0.000     0.000     0.000    90.000
   02/06/2018 06:30:00      0.000     0.000     0.000    90.000
   02/06/2018 06:35:00      0.000     0.000     0.000    90.000
   02/06/2018 06:40:00      0.000     0.000     0.000    90.000
   02/06/2018 06:45:00      0.000     0.000     0.000    90.000
   02/06/2018 06:50:00      0.000     0.000     0.000    90.000
   02/06/2018 06:55:00      0.000     0.000     0.000    90.000
   02/06/2018 07:00:00      0.000     0.000     0.000    90.000
   02/06/2018 07:05:00      0.000     0.000     0.000    90.000
   02/06/2018 07:10:00      2.898     0.000     0.998    90.998
   02/06/2018 07:15:00      3.054     0.000     0.865    90.865
   02/06/2018 07:20:00      3.044     0.000     0.949    90.949
   02/06/2018 07:25:00      2.990     0.000     1.091    91.091
   02/06/2018 07:30:00      3.007     0.000     1.130    91.130
   02/06/2018 07:35:00      3.024     0.000     1.168    91.168
   02/06/2018 07:40:00      3.039     0.000     1.204    91.204
   02/06/2018 07:45:00      3.055     0.000     1.238    91.238
   02/06/2018 07:50:00      3.069     0.000     1.272    91.272
   02/06/2018 07:55:00      3.084     0.000     1.304    91.304
   02/06/2018 08:00:00      3.098     0.000     1.336    91.336
   02/06/2018 08:05:00      3.111     0.000     1.366    91.366
   02/06/2018 08:10:00      3.123     0.000     1.394    91.394
   02/06/2018 08:15:00      3.134     0.000     1.419    91.419
   02/06/2018 08:20:00      3.144     0.000     1.442    91.442
   02/06/2018 08:25:00      3.153     0.000     1.463    91.463
   02/06/2018 08:30:00      3.161     0.000     1.483    91.483
   02/06/2018 08:35:00      3.169     0.000     1.501    91.501
   02/06/2018 08:40:00      3.176     0.000     1.518    91.518
   02/06/2018 08:45:00      3.182     0.000     1.534    91.534
   02/06/2018 08:50:00      3.188     0.000     1.548    91.548
   02/06/2018 08:55:00      3.194     0.000     1.562    91.562
   02/06/2018 09:00:00      3.200     0.000     1.575    91.575
   02/06/2018 09:05:00      3.205     0.000     1.587    91.587
   02/06/2018 09:10:00      3.208     0.000     1.596    91.596
   02/06/2018 09:15:00      3.211     0.000     1.603    91.603
   02/06/2018 09:20:00      3.214     0.000     1.608    91.608
   02/06/2018 09:25:00      3.215     0.000     1.612    91.612
   02/06/2018 09:30:00      3.216     0.000     1.614    91.614
   02/06/2018 09:35:00      3.216     0.000     1.615    91.615
   02/06/2018 09:40:00      3.216     0.000     1.615    91.615
   02/06/2018 09:45:00      3.216     0.000     1.613    91.613
   02/06/2018 09:50:00      3.215     0.000     1.611    91.611
   02/06/2018 09:55:00      3.213     0.000     1.608    91.608
   02/06/2018 10:00:00      3.212     0.000     1.604    91.604
   02/06/2018 10:05:00      3.210     0.000     1.599    91.599
   02/06/2018 10:10:00      3.208     0.000     1.594    91.594
   02/06/2018 10:15:00      3.205     0.000     1.588    91.588
   02/06/2018 10:20:00      3.202     0.000     1.582    91.582
   02/06/2018 10:25:00      3.200     0.000     1.575    91.575
   02/06/2018 10:30:00      3.196     0.000     1.568    91.568
   02/06/2018 10:35:00      3.193     0.000     1.560    91.560
   02/06/2018 10:40:00      3.190     0.000     1.552    91.552
   02/06/2018 10:45:00      3.186     0.000     1.543    91.543
   02/06/2018 10:50:00      3.183     0.000     1.535    91.535
   02/06/2018 10:55:00      3.179     0.000     1.526    91.526
   02/06/2018 11:00:00      3.175     0.000     1.516    91.516
   02/06/2018 11:05:00      3.171     0.000     1.507    91.507
   02/06/2018 11:10:00      3.167     0.000     1.497    91.497
   02/06/2018 11:15:00      3.163     0.000     1.487    91.487
   02/06/2018 11:20:00      3.158     0.000     1.477    91.477
   02/06/2018 11:25:00      3.154     0.000     1.467    91.467
   02/06/2018 11:30:00      3.149     0.000     1.456    91.456
   02/06/2018 11:35:00      3.145     0.000     1.446    91.446
   02/06/2018 11:40:00      3.140     0.000     1.435    91.435
   02/06/2018 11:45:00      3.136     0.000     1.424    91.424
   02/06/2018 11:50:00      3.131     0.000     1.413    91.413
   02/06/2018 11:55:00      3.126     0.000     1.402    91.402
   02/06/2018 12:00:00      3.121     0.000     1.391    91.391
   02/06/2018 12:05:00      3.116     0.000     1.379    91.379
   02/06/2018 12:10:00      3.111     0.000     1.368    91.368
   02/06/2018 12:15:00      3.106     0.000     1.356    91.356
   02/06/2018 12:20:00      3.101     0.000     1.345    91.345
   02/06/2018 12:25:00      3.096     0.000     1.333    91.333
   02/06/2018 12:30:00      3.091     0.000     1.321    91.321
   02/06/2018 12:35:00      3.086     0.000     1.310    91.310
   02/06/2018 12:40:00      3.081     0.000     1.298    91.298
   02/06/2018 12:45:00      3.075     0.000     1.286    91.286
   02/06/2018 12:50:00      3.070     0.000     1.274    91.274
   02/06/2018 12:55:00      3.065     0.000     1.262    91.262
   02/06/2018 13:00:00      3.060     0.000     1.250    91.250
   02/06/2018 13:05:00      3.054     0.000     1.238    91.238
   02/06/2018 13:10:00      3.049     0.000     1.226    91.226
   02/06/2018 13:15:00      3.043     0.000     1.214    91.214
   02/06/2018 13:20:00      3.038     0.000     1.201    91.201
   02/06/2018 13:25:00      3.033     0.000     1.189    91.189
   02/06/2018 13:30:00      3.027     0.000     1.177    91.177
   02/06/2018 13:35:00      3.022     0.000     1.165    91.165
   02/06/2018 13:40:00      3.016     0.000     1.152    91.152
   02/06/2018 13:45:00      3.011     0.000     1.140    91.140
   02/06/2018 13:50:00      3.005     0.000     1.128    91.128
   02/06/2018 13:55:00      2.999     0.000     1.115    91.115
   02/06/2018 14:00:00      2.994     0.000     1.103    91.103
  
  
  <<< Node J3 >>>
  ----------------------------------------------------------------
                           Inflow  Flooding     Depth      Head
  Date        Time            CFS       CFS      feet      feet
  ----------------------------------------------------------------
   02/06/2018 00:05:00      1.328     0.000     0.526    88.526
   02/06/2018 00:10:00      1.299     0.000     0.546    88.546
   02/06/2018 00:15:00      1.270     0.000     0.539    88.539
   02/06/2018 00:20:00      1.243     0.000     0.532    88.532
   02/06/2018 00:25:00      1.216     0.000     0.525    88.525
   02/06/2018 00:30:00      1.190     0.000     0.518    88.518
   02/06/2018 00:35:00      1.164     0.000     0.511    88.511
   02/06/2018 00:40:00      1.140     0.000     0.505    88.505
   02/06/2018 00:45:00      1.115     0.000     0.498    88.498
   02/06/2018 00:50:00      1.092     0.000     0.492    88.492
   02/06/2018 00:55:00      1.069     0.000     0.486    88.486
   02/06/2018 01:00:00      1.047     0.000     0.480    88.480
   02/06/2018 01:05:00      1.026     0.000     0.474    88.474
   02/06/2018 01:10:00      1.005     0.000     0.469    88.469
   02/06/2018 01:15:00      0.984     0.000     0.463    88.463
   02/06/2018 01:20:00      0.965     0.000     0.458    88.458
   02/06/2018 01:25:00      0.945     0.000     0.453    88.453
   02/06/2018 01:30:00      0.927     0.000     0.448    88.448
   02/06/2018 01:35:00      0.908     0.000     0.443    88.443
   02/06/2018 01:40:00      0.891     0.000     0.438    88.438
   02/06/2018 01:45:00      0.873     0.000     0.433    88.433
   02/06/2018 01:50:00      0.856     0.000     0.428    88.428
   02/06/2018 01:55:00      0.840     0.000     0.424    88.424
   02/06/2018 02:00:00      0.824     0.000     0.419    88.419
   02/06/2018 02:05:00      0.024     0.000     0.179    88.179
   02/06/2018 02:10:00      0.005     0.000     0.096    88.096
   02/06/2018 02:15:00      0.002     0.000     0.063    88.063
   02/06/2018 02:20:00      0.001     0.000     0.046    88.046
   02/06/2018 02:25:00      0.001     0.000     0.036    88.036
   02/06/2018 02:30:00      0.000     0.000     0.030    88.030
   02/06/2018 02:35:00      0.000     0.000     0.025    88.025
   02/06/2018 02:40:00      0.000     0.000     0.021    88.021
   02/06/2018 02:45:00      0.000     0.000     0.019    88.019
   02/06/2018 02:50:00      0.000     0.000     0.016    88.016
   02/06/2018 02:55:00      0.000     0.000     0.015    88.015
   02/06/2018 03:00:00      0.000     0.000     0.014    88.014
   02/06/2018 03:05:00      0.000     0.000     0.013    88.013
   02/06/2018 03:10:00      0.000     0.000     0.012    88.012
   02/06/2018 03:15:00      0.000     0.000     0.011    88.011
   02/06/2018 03:20:00      0.000     0.000     0.011    88.011
   02/06/2018 03:25:00      0.000     0.000     0.010    88.010
   02/06/2018 03:30:00      0.000     0.000     0.009    88.009
   02/06/2018 03:35:00      0.000     0.000     0.009    88.009
   02/06/2018 03:40:00      0.000     0.000     0.008    88.008
   02/06/2018 03:45:00      0.000     0.000     0.008    88.008
   02/06/2018 03:50:00      0.000     0.000     0.007    88.007
   02/06/2018 03:55:00      0.000     0.000     0.006    88.006
   02/06/2018 04:00:00      0.000     0.000     0.006    88.006
   02/06/2018 04:05:00      0.000     0.000     0.005    88.005
   02/06/2018 04:10:00      0.000     0.000     0.005    88.005
   02/06/2018 04:15:00      0.000     0.000     0.005    88.005
   02/06/2018 04:20:00      0.000     0.000     0.004    88.004
   02/06/2018 04:25:00      0.000     0.000     0.004    88.004
   02/06/2018 04:30:00      0.000     0.000     0.004    88.004
   02/06/2018 04:35:00      0.000     0.000     0.003    88.003
   02/06/2018 04:40:00      0.000     0.000     0.003    88.003
   02/06/2018 04:45:00      0.000     0.000     0.003    88.003
   02/06/2018 04:50:00      0.000     0.000     0.002    88.002
   02/06/2018 04:55:00      0.000     0.000     0.002    88.002
   02/06/2018 05:00:00      0.000     0.000     0.002    88.002
   02/06/2018 05:05:00      0.000     0.000     0.002    88.002
   02/06/2018 05:10:00      0.000     0.000     0.002    88.002
   02/06/2018 05:15:00      0.000     0.000     0.002    88.002
   02/06/2018 05:20:00      0.000     0.000     0.002    88.002
   02/06/2018 05:25:00      0.000     0.000     0.002    88.002
   02/06/2018 05:30:00      0.000     0.000     0.002    88.002
   02/06/2018 05:35:00      0.000     0.000     0.002    88.002
   02/06/2018 05:40:00      0.000     0.000     0.002    88.002
   02/06/2018 05:45:00      0.000     0.000     0.002    88.002
   02/06/2018 05:50:00      0.000     0.000     0.002    88.002
   02/06/2018 05:55:00      0.000     0.000     0.002    88.002
   02/06/2018 06:00:00      0.000     0.000     0.002    88.002
   02/06/2018 06:05:00      0.000     0.000     0.002    88.002
   02/06/2018 06:10:00      0.000     0.000     0.002    88.002
   02/06/2018 06:15:00      0.000     0.000     0.002    88.002
   02/06/2018 06:20:00      0.000     0.000     0.002    88.002
   02/06/2018 06:25:00      0.000     0.000     0.002    88.002
   02/06/2018 06:30:00      0.000     0.000     0.002    88.002
   02/06/2018 06:35:00      0.000     0.000     0.002    88.002
   02/06/2018 06:40:00      0.000     0.000     0.002    88.002
   02/06/2018 06:45:00      0.000     0.000     0.002    88.002
   02/06/2018 06:50:00      0.000     0.000     0.002    88.002
   02/06/2018 06:55:00      0.000     0.000     0.002    88.002
   02/06/2018 07:00:00      0.000     0.000     0.002    88.002
   02/06/2018 07:05:00      0.000     0.000     0.002    88.002
   02/06/2018 07:10:00      3.024     0.000     0.280    88.280
   02/06/2018 07:15:00      3.006     0.000     1.447    89.447
   02/06/2018 07:20:00      3.016     0.000     1.455    89.455
   02/06/2018 07:25:00      2.988     0.000     1.425    89.425
   02/06/2018 07:30:00      3.005     0.000     1.445    89.445
   02/06/2018 07:35:00      3.022     0.000     1.463    89.463
   02/06/2018 07:40:00      3.038     0.000     1.481    89.481
   02/06/2018 07:45:00      3.054     0.000     1.498    89.498
   02/06/2018 07:50:00      3.068     0.000     1.515    89.515
   02/06/2018 07:55:00      3.083     0.000     1.531    89.531
   02/06/2018 08:00:00      3.097     0.000     1.547    89.547
   02/06/2018 08:05:00      3.110     0.000     1.562    89.562
   02/06/2018 08:10:00      3.122     0.000     1.576    89.576
   02/06/2018 08:15:00      3.133     0.000     1.588    89.588
   02/06/2018 08:20:00      3.143     0.000     1.599    89.599
   02/06/2018 08:25:00      3.152     0.000     1.610    89.610
   02/06/2018 08:30:00      3.160     0.000     1.620    89.620
   02/06/2018 08:35:00      3.168     0.000     1.629    89.629
   02/06/2018 08:40:00      3.175     0.000     1.637    89.637
   02/06/2018 08:45:00      3.182     0.000     1.645    89.645
   02/06/2018 08:50:00      3.188     0.000     1.653    89.653
   02/06/2018 08:55:00      3.194     0.000     1.659    89.659
   02/06/2018 09:00:00      3.199     0.000     1.666    89.666
   02/06/2018 09:05:00      3.204     0.000     1.672    89.672
   02/06/2018 09:10:00      3.208     0.000     1.676    89.676
   02/06/2018 09:15:00      3.211     0.000     1.680    89.680
   02/06/2018 09:20:00      3.214     0.000     1.683    89.683
   02/06/2018 09:25:00      3.215     0.000     1.685    89.685
   02/06/2018 09:30:00      3.216     0.000     1.686    89.686
   02/06/2018 09:35:00      3.216     0.000     1.686    89.686
   02/06/2018 09:40:00      3.216     0.000     1.686    89.686
   02/06/2018 09:45:00      3.216     0.000     1.685    89.685
   02/06/2018 09:50:00      3.215     0.000     1.684    89.684
   02/06/2018 09:55:00      3.213     0.000     1.682    89.682
   02/06/2018 10:00:00      3.212     0.000     1.681    89.681
   02/06/2018 10:05:00      3.210     0.000     1.678    89.678
   02/06/2018 10:10:00      3.208     0.000     1.676    89.676
   02/06/2018 10:15:00      3.205     0.000     1.673    89.673
   02/06/2018 10:20:00      3.203     0.000     1.669    89.669
   02/06/2018 10:25:00      3.200     0.000     1.666    89.666
   02/06/2018 10:30:00      3.197     0.000     1.662    89.662
   02/06/2018 10:35:00      3.193     0.000     1.659    89.659
   02/06/2018 10:40:00      3.190     0.000     1.655    89.655
   02/06/2018 10:45:00      3.187     0.000     1.650    89.650
   02/06/2018 10:50:00      3.183     0.000     1.646    89.646
   02/06/2018 10:55:00      3.179     0.000     1.641    89.641
   02/06/2018 11:00:00      3.175     0.000     1.637    89.637
   02/06/2018 11:05:00      3.171     0.000     1.632    89.632
   02/06/2018 11:10:00      3.167     0.000     1.627    89.627
   02/06/2018 11:15:00      3.163     0.000     1.622    89.622
   02/06/2018 11:20:00      3.159     0.000     1.617    89.617
   02/06/2018 11:25:00      3.154     0.000     1.612    89.612
   02/06/2018 11:30:00      3.150     0.000     1.607    89.607
   02/06/2018 11:35:00      3.145     0.000     1.601    89.601
   02/06/2018 11:40:00      3.141     0.000     1.596    89.596
   02/06/2018 11:45:00      3.136     0.000     1.591    89.591
   02/06/2018 11:50:00      3.131     0.000     1.585    89.585
   02/06/2018 11:55:00      3.126     0.000     1.580    89.580
   02/06/2018 12:00:00      3.121     0.000     1.574    89.574
   02/06/2018 12:05:00      3.117     0.000     1.569    89.569
   02/06/2018 12:10:00      3.112     0.000     1.563    89.563
   02/06/2018 12:15:00      3.107     0.000     1.557    89.557
   02/06/2018 12:20:00      3.102     0.000     1.552    89.552
   02/06/2018 12:25:00      3.096     0.000     1.546    89.546
   02/06/2018 12:30:00      3.091     0.000     1.540    89.540
   02/06/2018 12:35:00      3.086     0.000     1.534    89.534
   02/06/2018 12:40:00      3.081     0.000     1.528    89.528
   02/06/2018 12:45:00      3.076     0.000     1.522    89.522
   02/06/2018 12:50:00      3.071     0.000     1.516    89.516
   02/06/2018 12:55:00      3.065     0.000     1.510    89.510
   02/06/2018 13:00:00      3.060     0.000     1.504    89.504
   02/06/2018 13:05:00      3.055     0.000     1.498    89.498
   02/06/2018 13:10:00      3.049     0.000     1.492    89.492
   02/06/2018 13:15:00      3.044     0.000     1.486    89.486
   02/06/2018 13:20:00      3.038     0.000     1.480    89.480
   02/06/2018 13:25:00      3.033     0.000     1.474    89.474
   02/06/2018 13:30:00      3.028     0.000     1.468    89.468
   02/06/2018 13:35:00      3.022     0.000     1.462    89.462
   02/06/2018 13:40:00      3.017     0.000     1.456    89.456
   02/06/2018 13:45:00      3.011     0.000     1.450    89.450
   02/06/2018 13:50:00      3.006     0.000     1.444    89.444
   02/06/2018 13:55:00      3.000     0.000     1.438    89.438
   02/06/2018 14:00:00      2.995     0.000     1.431    89.431
  
  
  <<< Node Out1 >>>
  ----------------------------------------------------------------
                           Inflow  Flooding     Depth      Head
  Date        Time            CFS       CFS      feet      feet
  ----------------------------------------------------------------
   02/06/2018 00:05:00      1.191     0.000     0.460    87.460
   02/06/2018 00:10:00      1.306     0.000     0.483    87.483
   02/06/2018 00:15:00      1.280     0.000     0.478    87.478
   02/06/2018 00:20:00      1.252     0.000     0.472    87.472
   02/06/2018 00:25:00      1.225     0.000     0.467    87.467
   02/06/2018 00:30:00      1.199     0.000     0.461    87.461
   02/06/2018 00:35:00      1.173     0.000     0.456    87.456
   02/06/2018 00:40:00      1.148     0.000     0.451    87.451
   02/06/2018 00:45:00      1.124     0.000     0.446    87.446
   02/06/2018 00:50:00      1.100     0.000     0.441    87.441
   02/06/2018 00:55:00      1.077     0.000     0.437    87.437
   02/06/2018 01:00:00      1.055     0.000     0.432    87.432
   02/06/2018 01:05:00      1.033     0.000     0.427    87.427
   02/06/2018 01:10:00      1.012     0.000     0.422    87.422
   02/06/2018 01:15:00      0.992     0.000     0.418    87.418
   02/06/2018 01:20:00      0.972     0.000     0.413    87.413
   02/06/2018 01:25:00      0.953     0.000     0.409    87.409
   02/06/2018 01:30:00      0.934     0.000     0.405    87.405
   02/06/2018 01:35:00      0.915     0.000     0.401    87.401
   02/06/2018 01:40:00      0.897     0.000     0.397    87.397
   02/06/2018 01:45:00      0.880     0.000     0.392    87.392
   02/06/2018 01:50:00      0.863     0.000     0.388    87.388
   02/06/2018 01:55:00      0.846     0.000     0.384    87.384
   02/06/2018 02:00:00      0.830     0.000     0.381    87.381
   02/06/2018 02:05:00      0.170     0.000     0.168    87.168
   02/06/2018 02:10:00      0.042     0.000     0.083    87.083
   02/06/2018 02:15:00      0.016     0.000     0.049    87.049
   02/06/2018 02:20:00      0.008     0.000     0.032    87.032
   02/06/2018 02:25:00      0.005     0.000     0.019    87.019
   02/06/2018 02:30:00      0.003     0.000     0.011    87.011
   02/06/2018 02:35:00      0.002     0.000     0.008    87.008
   02/06/2018 02:40:00      0.001     0.000     0.005    87.005
   02/06/2018 02:45:00      0.001     0.000     0.004    87.004
   02/06/2018 02:50:00      0.001     0.000     0.003    87.003
   02/06/2018 02:55:00      0.000     0.000     0.002    87.002
   02/06/2018 03:00:00      0.000     0.000     0.001    87.001
   02/06/2018 03:05:00      0.000     0.000     0.001    87.001
   02/06/2018 03:10:00      0.000     0.000     0.001    87.001
   02/06/2018 03:15:00      0.000     0.000     0.001    87.001
   02/06/2018 03:20:00      0.000     0.000     0.001    87.001
   02/06/2018 03:25:00      0.000     0.000     0.001    87.001
   02/06/2018 03:30:00      0.000     0.000     0.001    87.001
   02/06/2018 03:35:00      0.000     0.000     0.000    87.000
   02/06/2018 03:40:00      0.000     0.000     0.000    87.000
   02/06/2018 03:45:00      0.000     0.000     0.000    87.000
   02/06/2018 03:50:00      0.000     0.000     0.000    87.000
   02/06/2018 03:55:00      0.000     0.000     0.000    87.000
   02/06/2018 04:00:00      0.000     0.000     0.000    87.000
   02/06/2018 04:05:00      0.000     0.000     0.000    87.000
   02/06/2018 04:10:00      0.000     0.000     0.000    87.000
   02/06/2018 04:15:00      0.000     0.000     0.000    87.000
   02/06/2018 04:20:00      0.000     0.000     0.000    87.000
   02/06/2018 04:25:00      0.000     0.000     0.000    87.000
   02/06/2018 04:30:00      0.000     0.000     0.000    87.000
   02/06/2018 04:35:00      0.000     0.000     0.000    87.000
   02/06/2018 04:40:00      0.000     0.000     0.000    87.000
   02/06/2018 04:45:00      0.000     0.000     0.000    87.000
   02/06/2018 04:50:00      0.000     0.000     0.000    87.000
   02/06/2018 04:55:00      0.000     0.000     0.000    87.000
   02/06/2018 05:00:00      0.000     0.000     0.000    87.000
   02/06/2018 05:05:00      0.000     0.000     0.000    87.000
   02/06/2018 05:10:00      0.000     0.000     0.000    87.000
   02/06/2018 05:15:00      0.000     0.000     0.000    87.000
   02/06/2018 05:20:00      0.000     0.000     0.000    87.000
   02/06/2018 05:25:00      0.000     0.000     0.000    87.000
   02/06/2018 05:30:00      0.000     0.000     0.000    87.000
   02/06/2018 05:35:00      0.000     0.000     0.000    87.000
   02/06/2018 05:40:00      0.000     0.000     0.000    87.000
   02/06/2018 05:45:00      0.000     0.000     0.000    87.000
   02/06/2018 05:50:00      0.000     0.000     0.000    87.000
   02/06/2018 05:55:00      0.000     0.000     0.000    87.000
   02/06/2018 06:00:00      0.000     0.000     0.000    87.000
   02/06/2018 06:05:00      0.000     0.000     0.000    87.000
   02/06/2018 06:10:00      0.000     0.000     0.000    87.000
   02/06/2018 06:15:00      0.000     0.000     0.000    87.000
   02/06/2018 06:20:00      0.000     0.000     0.000    87.000
   02/06/2018 06:25:00      0.000     0.000     0.000    87.000
   02/06/2018 06:30:00      0.000     0.000     0.000    87.000
   02/06/2018 06:35:00      0.000     0.000     0.000    87.000
   02/06/2018 06:40:00      0.000     0.000     0.000    87.000
   02/06/2018 06:45:00      0.000     0.000     0.000    87.000
   02/06/2018 06:50:00      0.000     0.000     0.000    87.000
   02/06/2018 06:55:00      0.000     0.000     0.000    87.000
   02/06/2018 07:00:00      0.000     0.000     0.000    87.000
   02/06/2018 07:05:00      0.000     0.000     0.000    87.000
   02/06/2018 07:10:00      0.278     0.000     0.216    87.216
   02/06/2018 07:15:00      3.003     0.000     0.742    87.742
   02/06/2018 07:20:00      3.016     0.000     0.744    87.744
   02/06/2018 07:25:00      2.988     0.000     0.740    87.740
   02/06/2018 07:30:00      3.005     0.000     0.743    87.743
   02/06/2018 07:35:00      3.022     0.000     0.745    87.745
   02/06/2018 07:40:00      3.038     0.000     0.747    87.747
   02/06/2018 07:45:00      3.053     0.000     0.749    87.749
   02/06/2018 07:50:00      3.068     0.000     0.750    87.750
   02/06/2018 07:55:00      3.083     0.000     0.752    87.752
   02/06/2018 08:00:00      3.096     0.000     0.754    87.754
   02/06/2018 08:05:00      3.110     0.000     0.755    87.755
   02/06/2018 08:10:00      3.122     0.000     0.757    87.757
   02/06/2018 08:15:00      3.133     0.000     0.758    87.758
   02/06/2018 08:20:00      3.143     0.000     0.760    87.760
   02/06/2018 08:25:00      3.152     0.000     0.761    87.761
   02/06/2018 08:30:00      3.160     0.000     0.762    87.762
   02/06/2018 08:35:00      3.168     0.000     0.762    87.762
   02/06/2018 08:40:00      3.175     0.000     0.763    87.763
   02/06/2018 08:45:00      3.182     0.000     0.764    87.764
   02/06/2018 08:50:00      3.188     0.000     0.765    87.765
   02/06/2018 08:55:00      3.194     0.000     0.765    87.765
   02/06/2018 09:00:00      3.199     0.000     0.766    87.766
   02/06/2018 09:05:00      3.204     0.000     0.766    87.766
   02/06/2018 09:10:00      3.208     0.000     0.767    87.767
   02/06/2018 09:15:00      3.211     0.000     0.767    87.767
   02/06/2018 09:20:00      3.213     0.000     0.767    87.767
   02/06/2018 09:25:00      3.215     0.000     0.768    87.768
   02/06/2018 09:30:00      3.216     0.000     0.768    87.768
   02/06/2018 09:35:00      3.216     0.000     0.768    87.768
   02/06/2018 09:40:00      3.216     0.000     0.768    87.768
   02/06/2018 09:45:00      3.216     0.000     0.768    87.768
   02/06/2018 09:50:00      3.215     0.000     0.768    87.768
   02/06/2018 09:55:00      3.213     0.000     0.767    87.767
   02/06/2018 10:00:00      3.212     0.000     0.767    87.767
   02/06/2018 10:05:00      3.210     0.000     0.767    87.767
   02/06/2018 10:10:00      3.208     0.000     0.767    87.767
   02/06/2018 10:15:00      3.205     0.000     0.767    87.767
   02/06/2018 10:20:00      3.203     0.000     0.766    87.766
   02/06/2018 10:25:00      3.200     0.000     0.766    87.766
   02/06/2018 10:30:00      3.197     0.000     0.766    87.766
   02/06/2018 10:35:00      3.194     0.000     0.765    87.765
   02/06/2018 10:40:00      3.190     0.000     0.765    87.765
   02/06/2018 10:45:00      3.187     0.000     0.764    87.764
   02/06/2018 10:50:00      3.183     0.000     0.764    87.764
   02/06/2018 10:55:00      3.179     0.000     0.764    87.764
   02/06/2018 11:00:00      3.175     0.000     0.763    87.763
   02/06/2018 11:05:00      3.171     0.000     0.763    87.763
   02/06/2018 11:10:00      3.167     0.000     0.762    87.762
   02/06/2018 11:15:00      3.163     0.000     0.762    87.762
   02/06/2018 11:20:00      3.159     0.000     0.761    87.761
   02/06/2018 11:25:00      3.154     0.000     0.761    87.761
   02/06/2018 11:30:00      3.150     0.000     0.760    87.760
   02/06/2018 11:35:00      3.145     0.000     0.760    87.760
   02/06/2018 11:40:00      3.141     0.000     0.759    87.759
   02/06/2018 11:45:00      3.136     0.000     0.759    87.759
   02/06/2018 11:50:00      3.131     0.000     0.758    87.758
   02/06/2018 11:55:00      3.126     0.000     0.758    87.758
   02/06/2018 12:00:00      3.122     0.000     0.757    87.757
   02/06/2018 12:05:00      3.117     0.000     0.756    87.756
   02/06/2018 12:10:00      3.112     0.000     0.756    87.756
   02/06/2018 12:15:00      3.107     0.000     0.755    87.755
   02/06/2018 12:20:00      3.102     0.000     0.754    87.754
   02/06/2018 12:25:00      3.097     0.000     0.754    87.754
   02/06/2018 12:30:00      3.091     0.000     0.753    87.753
   02/06/2018 12:35:00      3.086     0.000     0.753    87.753
   02/06/2018 12:40:00      3.081     0.000     0.752    87.752
   02/06/2018 12:45:00      3.076     0.000     0.751    87.751
   02/06/2018 12:50:00      3.071     0.000     0.751    87.751
   02/06/2018 12:55:00      3.065     0.000     0.750    87.750
   02/06/2018 13:00:00      3.060     0.000     0.749    87.749
   02/06/2018 13:05:00      3.055     0.000     0.749    87.749
   02/06/2018 13:10:00      3.049     0.000     0.748    87.748
   02/06/2018 13:15:00      3.044     0.000     0.747    87.747
   02/06/2018 13:20:00      3.039     0.000     0.747    87.747
   02/06/2018 13:25:00      3.033     0.000     0.746    87.746
   02/06/2018 13:30:00      3.028     0.000     0.745    87.745
   02/06/2018 13:35:00      3.022     0.000     0.745    87.745
   02/06/2018 13:40:00      3.017     0.000     0.744    87.744
   02/06/2018 13:45:00      3.011     0.000     0.743    87.743
   02/06/2018 13:50:00      3.006     0.000     0.743    87.743
   02/06/2018 13:55:00      3.000     0.000     0.742    87.742
   02/06/2018 14:00:00      2.995     0.000     0.741    87.741
  
  
  <<< Node St1 >>>
  ----------------------------------------------------------------
                           Inflow  Flooding     Depth      Head
  Date        Time            CFS       CFS      feet      feet
  ----------------------------------------------------------------
   02/06/2018 00:05:00      0.000     0.000     0.739    90.739
   02/06/2018 00:10:00      0.000     0.000     0.730    90.730
   02/06/2018 00:15:00      0.000     0.000     0.720    90.720
   02/06/2018 00:20:00      0.000     0.000     0.711    90.711
   02/06/2018 00:25:00      0.000     0.000     0.701    90.701
   02/06/2018 00:30:00      0.000     0.000     0.692    90.692
   02/06/2018 00:35:00      0.000     0.000     0.684    90.684
   02/06/2018 00:40:00      0.000     0.000     0.675    90.675
   02/06/2018 00:45:00      0.000     0.000     0.667    90.667
   02/06/2018 00:50:00      0.000     0.000     0.658    90.658
   02/06/2018 00:55:00      0.000     0.000     0.650    90.650
   02/06/2018 01:00:00      0.000     0.000     0.642    90.642
   02/06/2018 01:05:00      0.000     0.000     0.635    90.635
   02/06/2018 01:10:00      0.000     0.000     0.627    90.627
   02/06/2018 01:15:00      0.000     0.000     0.620    90.620
   02/06/2018 01:20:00      0.000     0.000     0.612    90.612
   02/06/2018 01:25:00      0.000     0.000     0.605    90.605
   02/06/2018 01:30:00      0.000     0.000     0.598    90.598
   02/06/2018 01:35:00      0.000     0.000     0.591    90.591
   02/06/2018 01:40:00      0.000     0.000     0.584    90.584
   02/06/2018 01:45:00      0.000     0.000     0.578    90.578
   02/06/2018 01:50:00      0.000     0.000     0.571    90.571
   02/06/2018 01:55:00      0.000     0.000     0.565    90.565
   02/06/2018 02:00:00      0.000     0.000     0.559    90.559
   02/06/2018 02:05:00      0.000     0.000     0.559    90.559
   02/06/2018 02:10:00      0.000     0.000     0.559    90.559
   02/06/2018 02:15:00      0.000     0.000     0.559    90.559
   02/06/2018 02:20:00      0.000     0.000     0.559    90.559
   02/06/2018 02:25:00      0.000     0.000     0.559    90.559
   02/06/2018 02:30:00      0.000     0.000     0.559    90.559
   02/06/2018 02:35:00      0.000     0.000     0.559    90.559
   02/06/2018 02:40:00      0.000     0.000     0.559    90.559
   02/06/2018 02:45:00      0.000     0.000     0.559    90.559
   02/06/2018 02:50:00      0.000     0.000     0.559    90.559
   02/06/2018 02:55:00      0.000     0.000     0.559    90.559
   02/06/2018 03:00:00      0.000     0.000     0.559    90.559
   02/06/2018 03:05:00      0.000     0.000     0.559    90.559
   02/06/2018 03:10:00      0.000     0.000     0.559    90.559
   02/06/2018 03:15:00      0.000     0.000     0.559    90.559
   02/06/2018 03:20:00      0.000     0.000     0.559    90.559
   02/06/2018 03:25:00      0.000     0.000     0.559    90.559
   02/06/2018 03:30:00      0.000     0.000     0.559    90.559
   02/06/2018 03:35:00      0.000     0.000     0.559    90.559
   02/06/2018 03:40:00      0.000     0.000     0.559    90.559
   02/06/2018 03:45:00      0.000     0.000     0.559    90.559
   02/06/2018 03:50:00      0.000     0.000     0.559    90.559
   02/06/2018 03:55:00      0.000     0.000     0.559    90.559
   02/06/2018 04:00:00      0.000     0.000     0.559    90.559
   02/06/2018 04:05:00      0.005     0.000     0.559    90.559
   02/06/2018 04:10:00      0.034     0.000     0.559    90.559
   02/06/2018 04:15:00      0.113     0.000     0.559    90.559
   02/06/2018 04:20:00      0.292     0.000     0.561    90.561
   02/06/2018 04:25:00      0.580     0.000     0.564    90.564
   02/06/2018 04:30:00      0.937     0.000     0.570    90.570
   02/06/2018 04:35:00      1.337     0.000     0.578    90.578
   02/06/2018 04:40:00      1.764     0.000     0.590    90.590
   02/06/2018 04:45:00      2.207     0.000     0.605    90.605
   02/06/2018 04:50:00      2.656     0.000     0.623    90.623
   02/06/2018 04:55:00      3.101     0.000     0.644    90.644
   02/06/2018 05:00:00      3.538     0.000     0.669    90.669
   02/06/2018 05:05:00      4.508     0.000     0.699    90.699
   02/06/2018 05:10:00      5.698     0.000     0.737    90.737
   02/06/2018 05:15:00      6.867     0.000     0.784    90.784
   02/06/2018 05:20:00      7.988     0.000     0.840    90.840
   02/06/2018 05:25:00      9.045     0.000     0.904    90.904
   02/06/2018 05:30:00     10.024     0.000     0.976    90.976
   02/06/2018 05:35:00     10.925     0.000     1.054    91.054
   02/06/2018 05:40:00     11.742     0.000     1.139    91.139
   02/06/2018 05:45:00     12.474     0.000     1.230    91.230
   02/06/2018 05:50:00     13.130     0.000     1.326    91.326
   02/06/2018 05:55:00     13.714     0.000     1.427    91.427
   02/06/2018 06:00:00     14.228     0.000     1.532    91.532
   02/06/2018 06:05:00     14.326     0.000     1.639    91.639
   02/06/2018 06:10:00     14.298     0.000     1.746    91.746
   02/06/2018 06:15:00     14.274     0.000     1.854    91.854
   02/06/2018 06:20:00     14.253     0.000     1.960    91.960
   02/06/2018 06:25:00     14.235     0.000     2.067    92.067
   02/06/2018 06:30:00     14.219     0.000     2.174    92.174
   02/06/2018 06:35:00     14.206     0.000     2.281    92.281
   02/06/2018 06:40:00     14.194     0.000     2.387    92.387
   02/06/2018 06:45:00     14.184     0.000     2.494    92.494
   02/06/2018 06:50:00     14.175     0.000     2.600    92.600
   02/06/2018 06:55:00     14.168     0.000     2.706    92.706
   02/06/2018 07:00:00     14.161     0.000     2.812    92.812
   02/06/2018 07:05:00     13.627     0.000     2.917    92.917
   02/06/2018 07:10:00     13.007     0.000     3.015    93.015
   02/06/2018 07:15:00     12.476     0.000     3.087    93.087
   02/06/2018 07:20:00     12.017     0.000     3.156    93.156
   02/06/2018 07:25:00     11.622     0.000     3.222    93.222
   02/06/2018 07:30:00     11.281     0.000     3.286    93.286
   02/06/2018 07:35:00     10.985     0.000     3.346    93.346
   02/06/2018 07:40:00     10.726     0.000     3.405    93.405
   02/06/2018 07:45:00     10.501     0.000     3.462    93.462
   02/06/2018 07:50:00     10.304     0.000     3.517    93.517
   02/06/2018 07:55:00     10.131     0.000     3.570    93.570
   02/06/2018 08:00:00      9.979     0.000     3.623    93.623
   02/06/2018 08:05:00      9.463     0.000     3.673    93.673
   02/06/2018 08:10:00      8.896     0.000     3.718    93.718
   02/06/2018 08:15:00      8.405     0.000     3.759    93.759
   02/06/2018 08:20:00      7.976     0.000     3.797    93.797
   02/06/2018 08:25:00      7.601     0.000     3.832    93.832
   02/06/2018 08:30:00      7.270     0.000     3.864    93.864
   02/06/2018 08:35:00      6.979     0.000     3.894    93.894
   02/06/2018 08:40:00      6.722     0.000     3.921    93.921
   02/06/2018 08:45:00      6.493     0.000     3.947    93.947
   02/06/2018 08:50:00      6.289     0.000     3.971    93.971
   02/06/2018 08:55:00      6.108     0.000     3.994    93.994
   02/06/2018 09:00:00      5.946     0.000     4.015    94.015
   02/06/2018 09:05:00      5.499     0.000     4.034    94.034
   02/06/2018 09:10:00      5.001     0.000     4.049    94.049
   02/06/2018 09:15:00      4.565     0.000     4.061    94.061
   02/06/2018 09:20:00      4.180     0.000     4.070    94.070
   02/06/2018 09:25:00      3.839     0.000     4.076    94.076
   02/06/2018 09:30:00      3.536     0.000     4.079    94.079
   02/06/2018 09:35:00      3.266     0.000     4.080    94.080
   02/06/2018 09:40:00      3.023     0.000     4.080    94.080
   02/06/2018 09:45:00      2.805     0.000     4.078    94.078
   02/06/2018 09:50:00      2.608     0.000     4.074    94.074
   02/06/2018 09:55:00      2.431     0.000     4.069    94.069
   02/06/2018 10:00:00      2.269     0.000     4.062    94.062
   02/06/2018 10:05:00      2.123     0.000     4.055    94.055
   02/06/2018 10:10:00      1.989     0.000     4.046    94.046
   02/06/2018 10:15:00      1.866     0.000     4.036    94.036
   02/06/2018 10:20:00      1.754     0.000     4.026    94.026
   02/06/2018 10:25:00      1.652     0.000     4.015    94.015
   02/06/2018 10:30:00      1.557     0.000     4.003    94.003
   02/06/2018 10:35:00      1.470     0.000     3.990    93.990
   02/06/2018 10:40:00      1.390     0.000     3.977    93.977
   02/06/2018 10:45:00      1.315     0.000     3.963    93.963
   02/06/2018 10:50:00      1.246     0.000     3.949    93.949
   02/06/2018 10:55:00      1.182     0.000     3.934    93.934
   02/06/2018 11:00:00      1.122     0.000     3.919    93.919
   02/06/2018 11:05:00      1.067     0.000     3.903    93.903
   02/06/2018 11:10:00      1.016     0.000     3.887    93.887
   02/06/2018 11:15:00      0.968     0.000     3.871    93.871
   02/06/2018 11:20:00      0.922     0.000     3.854    93.854
   02/06/2018 11:25:00      0.880     0.000     3.837    93.837
   02/06/2018 11:30:00      0.840     0.000     3.820    93.820
   02/06/2018 11:35:00      0.803     0.000     3.803    93.803
   02/06/2018 11:40:00      0.769     0.000     3.785    93.785
   02/06/2018 11:45:00      0.736     0.000     3.767    93.767
   02/06/2018 11:50:00      0.705     0.000     3.749    93.749
   02/06/2018 11:55:00      0.676     0.000     3.731    93.731
   02/06/2018 12:00:00      0.648     0.000     3.712    93.712
   02/06/2018 12:05:00      0.623     0.000     3.694    93.694
   02/06/2018 12:10:00      0.598     0.000     3.675    93.675
   02/06/2018 12:15:00      0.575     0.000     3.656    93.656
   02/06/2018 12:20:00      0.553     0.000     3.637    93.637
   02/06/2018 12:25:00      0.533     0.000     3.618    93.618
   02/06/2018 12:30:00      0.513     0.000     3.599    93.599
   02/06/2018 12:35:00      0.494     0.000     3.579    93.579
   02/06/2018 12:40:00      0.476     0.000     3.560    93.560
   02/06/2018 12:45:00      0.459     0.000     3.540    93.540
   02/06/2018 12:50:00      0.443     0.000     3.520    93.520
   02/06/2018 12:55:00      0.428     0.000     3.501    93.501
   02/06/2018 13:00:00      0.414     0.000     3.481    93.481
   02/06/2018 13:05:00      0.400     0.000     3.461    93.461
   02/06/2018 13:10:00      0.387     0.000     3.441    93.441
   02/06/2018 13:15:00      0.374     0.000     3.421    93.421
   02/06/2018 13:20:00      0.362     0.000     3.401    93.401
   02/06/2018 13:25:00      0.350     0.000     3.381    93.381
   02/06/2018 13:30:00      0.339     0.000     3.361    93.361
   02/06/2018 13:35:00      0.329     0.000     3.341    93.341
   02/06/2018 13:40:00      0.319     0.000     3.320    93.320
   02/06/2018 13:45:00      0.309     0.000     3.300    93.300
   02/06/2018 13:50:00      0.300     0.000     3.280    93.280
   02/06/2018 13:55:00      0.291     0.000     3.260    93.260
   02/06/2018 14:00:00      0.283     0.000     3.239    93.239
  
  
  ************
  Link Results
  ************
  
  <<< Link C1 >>>
  ----------------------------------------------------------------
                             Flow  Velocity     Depth  Capacity/
  Date        Time            CFS    ft/sec      feet   Setting 
  ----------------------------------------------------------------
   02/06/2018 00:05:00      0.000     0.000     0.000     0.000
   02/06/2018 00:10:00      0.000     0.000     0.000     0.000
   02/06/2018 00:15:00      0.000     0.000     0.000     0.000
   02/06/2018 00:20:00      0.000     0.000     0.000     0.000
   02/06/2018 00:25:00      0.000     0.000     0.000     0.000
   02/06/2018 00:30:00      0.000     0.000     0.000     0.000
   02/06/2018 00:35:00      0.000     0.000     0.000     0.000
   02/06/2018 00:40:00      0.000     0.000     0.000     0.000
   02/06/2018 00:45:00      0.000     0.000     0.000     0.000
   02/06/2018 00:50:00      0.000     0.000     0.000     0.000
   02/06/2018 00:55:00      0.000     0.000     0.000     0.000
   02/06/2018 01:00:00      0.000     0.000     0.000     0.000
   02/06/2018 01:05:00      0.000     0.000     0.000     0.000
   02/06/2018 01:10:00      0.000     0.000     0.000     0.000
   02/06/2018 01:15:00      0.000     0.000     0.000     0.000
   02/06/2018 01:20:00      0.000     0.000     0.000     0.000
   02/06/2018 01:25:00      0.000     0.000     0.000     0.000
   02/06/2018 01:30:00      0.000     0.000     0.000     0.000
   02/06/2018 01:35:00      0.000     0.000     0.000     0.000
   02/06/2018 01:40:00      0.000     0.000     0.000     0.000
   02/06/2018 01:45:00      0.000     0.000     0.000     0.000
   02/06/2018 01:50:00      0.000     0.000     0.000     0.000
   02/06/2018 01:55:00      0.000     0.000     0.000     0.000
   02/06/2018 02:00:00      0.000     0.000     0.000     0.000
   02/06/2018 02:05:00      0.000     0.000     0.000     0.000
   02/06/2018 02:10:00      0.000     0.000     0.000     0.000
   02/06/2018 02:15:00      0.000     0.000     0.000     0.000
   02/06/2018 02:20:00      0.000     0.000     0.000     0.000
   02/06/2018 02:25:00      0.000     0.000     0.000     0.000
   02/06/2018 02:30:00      0.000     0.000     0.000     0.000
   02/06/2018 02:35:00      0.000     0.000     0.000     0.000
   02/06/2018 02:40:00      0.000     0.000     0.000     0.000
   02/06/2018 02:45:00      0.000     0.000     0.000     0.000
   02/06/2018 02:50:00      0.000     0.000     0.000     0.000
   02/06/2018 02:55:00      0.000     0.000     0.000     0.000
   02/06/2018 03:00:00      0.000     0.000     0.000     0.000
   02/06/2018 03:05:00      0.000     0.000     0.000     0.000
   02/06/2018 03:10:00      0.000     0.000     0.000     0.000
   02/06/2018 03:15:00      0.000     0.000     0.000     0.000
   02/06/2018 03:20:00      0.000     0.000     0.000     0.000
   02/06/2018 03:25:00      0.000     0.000     0.000     0.000
   02/06/2018 03:30:00      0.000     0.000     0.000     0.000
   02/06/2018 03:35:00      0.000     0.000     0.000     0.000
   02/06/2018 03:40:00      0.000     0.000     0.000     0.000
   02/06/2018 03:45:00      0.000     0.000     0.000     0.000
   02/06/2018 03:50:00      0.000     0.000     0.000     0.000
   02/06/2018 03:55:00      0.000     0.000     0.000     0.000
   02/06/2018 04:00:00      0.000     0.000     0.000     0.000
   02/06/2018 04:05:00      0.005     0.827     0.021     0.002
   02/06/2018 04:10:00      0.034     1.152     0.063     0.010
   02/06/2018 04:15:00      0.113     1.483     0.120     0.024
   02/06/2018 04:20:00      0.292     1.902     0.191     0.049
   02/06/2018 04:25:00      0.580     2.309     0.268     0.080
   02/06/2018 04:30:00      0.937     2.647     0.340     0.113
   02/06/2018 04:35:00      1.337     2.927     0.406     0.145
   02/06/2018 04:40:00      1.764     3.175     0.466     0.177
   02/06/2018 04:45:00      2.207     3.386     0.521     0.207
   02/06/2018 04:50:00      2.656     3.566     0.574     0.237
   02/06/2018 04:55:00      3.101     3.732     0.621     0.265
   02/06/2018 05:00:00      3.538     3.875     0.665     0.291
   02/06/2018 05:05:00      4.508     4.134     0.757     0.347
   02/06/2018 05:10:00      5.698     4.428     0.857     0.410
   02/06/2018 05:15:00      6.867     4.680     0.948     0.467
   02/06/2018 05:20:00      7.988     4.895     1.030     0.519
   02/06/2018 05:25:00      9.045     5.082     1.105     0.566
   02/06/2018 05:30:00     10.024     5.242     1.172     0.609
   02/06/2018 05:35:00     10.925     5.381     1.232     0.646
   02/06/2018 05:40:00     11.742     5.502     1.286     0.679
   02/06/2018 05:45:00     12.474     5.603     1.334     0.709
   02/06/2018 05:50:00     13.130     5.690     1.378     0.735
   02/06/2018 05:55:00     13.714     5.765     1.417     0.757
   02/06/2018 06:00:00     14.228     5.826     1.452     0.777
   02/06/2018 06:05:00     14.326     5.846     1.456     0.780
   02/06/2018 06:10:00     14.298     5.842     1.455     0.779
   02/06/2018 06:15:00     14.274     5.839     1.453     0.778
   02/06/2018 06:20:00     14.253     5.837     1.452     0.777
   02/06/2018 06:25:00     14.235     5.835     1.450     0.777
   02/06/2018 06:30:00     14.219     5.833     1.449     0.776
   02/06/2018 06:35:00     14.206     5.831     1.448     0.775
   02/06/2018 06:40:00     14.194     5.830     1.447     0.775
   02/06/2018 06:45:00     14.184     5.829     1.447     0.775
   02/06/2018 06:50:00     14.175     5.828     1.446     0.774
   02/06/2018 06:55:00     14.168     5.827     1.446     0.774
   02/06/2018 07:00:00     14.161     5.826     1.445     0.774
   02/06/2018 07:05:00     13.627     5.774     1.406     0.751
   02/06/2018 07:10:00     13.007     5.695     1.365     0.727
   02/06/2018 07:15:00     12.476     5.624     1.330     0.706
   02/06/2018 07:20:00     12.017     5.563     1.299     0.688
   02/06/2018 07:25:00     11.622     5.506     1.274     0.672
   02/06/2018 07:30:00     11.281     5.454     1.252     0.658
   02/06/2018 07:35:00     10.985     5.411     1.232     0.646
   02/06/2018 07:40:00     10.726     5.372     1.215     0.636
   02/06/2018 07:45:00     10.501     5.338     1.200     0.626
   02/06/2018 07:50:00     10.304     5.308     1.186     0.618
   02/06/2018 07:55:00     10.131     5.281     1.175     0.611
   02/06/2018 08:00:00      9.979     5.257     1.165     0.604
   02/06/2018 08:05:00      9.463     5.185     1.127     0.581
   02/06/2018 08:10:00      8.896     5.089     1.089     0.556
   02/06/2018 08:15:00      8.405     5.002     1.055     0.535
   02/06/2018 08:20:00      7.976     4.926     1.024     0.515
   02/06/2018 08:25:00      7.601     4.856     0.997     0.498
   02/06/2018 08:30:00      7.270     4.791     0.973     0.483
   02/06/2018 08:35:00      6.979     4.736     0.952     0.469
   02/06/2018 08:40:00      6.722     4.684     0.932     0.457
   02/06/2018 08:45:00      6.493     4.636     0.915     0.446
   02/06/2018 08:50:00      6.289     4.592     0.899     0.436
   02/06/2018 08:55:00      6.108     4.552     0.885     0.427
   02/06/2018 09:00:00      5.946     4.518     0.872     0.419
   02/06/2018 09:05:00      5.499     4.428     0.835     0.395
   02/06/2018 09:10:00      5.001     4.307     0.793     0.370
   02/06/2018 09:15:00      4.565     4.197     0.756     0.346
   02/06/2018 09:20:00      4.180     4.089     0.722     0.325
   02/06/2018 09:25:00      3.839     3.994     0.690     0.306
   02/06/2018 09:30:00      3.536     3.899     0.661     0.289
   02/06/2018 09:35:00      3.266     3.810     0.635     0.273
   02/06/2018 09:40:00      3.023     3.730     0.610     0.258
   02/06/2018 09:45:00      2.805     3.650     0.587     0.245
   02/06/2018 09:50:00      2.608     3.572     0.566     0.232
   02/06/2018 09:55:00      2.431     3.504     0.545     0.221
   02/06/2018 10:00:00      2.269     3.438     0.526     0.210
   02/06/2018 10:05:00      2.123     3.372     0.509     0.200
   02/06/2018 10:10:00      1.989     3.308     0.492     0.191
   02/06/2018 10:15:00      1.866     3.249     0.477     0.183
   02/06/2018 10:20:00      1.754     3.195     0.462     0.175
   02/06/2018 10:25:00      1.652     3.143     0.448     0.167
   02/06/2018 10:30:00      1.557     3.090     0.435     0.160
   02/06/2018 10:35:00      1.470     3.038     0.423     0.154
   02/06/2018 10:40:00      1.390     2.987     0.411     0.148
   02/06/2018 10:45:00      1.315     2.941     0.400     0.142
   02/06/2018 10:50:00      1.246     2.899     0.389     0.137
   02/06/2018 10:55:00      1.182     2.859     0.379     0.132
   02/06/2018 11:00:00      1.122     2.819     0.369     0.127
   02/06/2018 11:05:00      1.067     2.780     0.360     0.122
   02/06/2018 11:10:00      1.016     2.739     0.351     0.118
   02/06/2018 11:15:00      0.968     2.699     0.343     0.114
   02/06/2018 11:20:00      0.922     2.660     0.335     0.110
   02/06/2018 11:25:00      0.880     2.622     0.327     0.107
   02/06/2018 11:30:00      0.840     2.590     0.320     0.103
   02/06/2018 11:35:00      0.803     2.560     0.313     0.100
   02/06/2018 11:40:00      0.769     2.530     0.305     0.097
   02/06/2018 11:45:00      0.736     2.501     0.299     0.094
   02/06/2018 11:50:00      0.705     2.473     0.292     0.091
   02/06/2018 11:55:00      0.676     2.445     0.286     0.088
   02/06/2018 12:00:00      0.648     2.418     0.281     0.085
   02/06/2018 12:05:00      0.623     2.388     0.275     0.083
   02/06/2018 12:10:00      0.598     2.359     0.270     0.081
   02/06/2018 12:15:00      0.575     2.330     0.265     0.079
   02/06/2018 12:20:00      0.553     2.302     0.260     0.077
   02/06/2018 12:25:00      0.533     2.275     0.255     0.075
   02/06/2018 12:30:00      0.513     2.248     0.251     0.073
   02/06/2018 12:35:00      0.494     2.221     0.247     0.071
   02/06/2018 12:40:00      0.476     2.202     0.242     0.069
   02/06/2018 12:45:00      0.459     2.183     0.237     0.067
   02/06/2018 12:50:00      0.443     2.163     0.233     0.065
   02/06/2018 12:55:00      0.428     2.143     0.229     0.064
   02/06/2018 13:00:00      0.414     2.124     0.225     0.062
   02/06/2018 13:05:00      0.400     2.105     0.221     0.060
   02/06/2018 13:10:00      0.387     2.087     0.217     0.059
   02/06/2018 13:15:00      0.374     2.069     0.214     0.058
   02/06/2018 13:20:00      0.362     2.051     0.210     0.056
   02/06/2018 13:25:00      0.350     2.033     0.207     0.055
   02/06/2018 13:30:00      0.339     2.016     0.204     0.054
   02/06/2018 13:35:00      0.329     1.999     0.201     0.052
   02/06/2018 13:40:00      0.319     1.981     0.198     0.051
   02/06/2018 13:45:00      0.309     1.961     0.195     0.050
   02/06/2018 13:50:00      0.300     1.942     0.192     0.049
   02/06/2018 13:55:00      0.291     1.924     0.189     0.048
   02/06/2018 14:00:00      0.283     1.906     0.187     0.047
  
  
  <<< Link C2 >>>
  ----------------------------------------------------------------
                             Flow  Velocity     Depth  Capacity/
  Date        Time            CFS    ft/sec      feet   Setting 
  ----------------------------------------------------------------
   02/06/2018 00:05:00      1.328     3.521     0.484     0.480
   02/06/2018 00:10:00      1.299     3.379     0.492     0.489
   02/06/2018 00:15:00      1.270     3.359     0.485     0.481
   02/06/2018 00:20:00      1.243     3.341     0.479     0.474
   02/06/2018 00:25:00      1.216     3.324     0.473     0.466
   02/06/2018 00:30:00      1.190     3.306     0.467     0.458
   02/06/2018 00:35:00      1.164     3.288     0.461     0.451
   02/06/2018 00:40:00      1.140     3.270     0.456     0.444
   02/06/2018 00:45:00      1.115     3.253     0.450     0.437
   02/06/2018 00:50:00      1.092     3.235     0.445     0.430
   02/06/2018 00:55:00      1.069     3.218     0.440     0.423
   02/06/2018 01:00:00      1.047     3.200     0.434     0.417
   02/06/2018 01:05:00      1.026     3.182     0.429     0.410
   02/06/2018 01:10:00      1.005     3.164     0.424     0.404
   02/06/2018 01:15:00      0.984     3.147     0.420     0.398
   02/06/2018 01:20:00      0.965     3.131     0.415     0.392
   02/06/2018 01:25:00      0.945     3.114     0.410     0.387
   02/06/2018 01:30:00      0.927     3.098     0.406     0.381
   02/06/2018 01:35:00      0.908     3.083     0.401     0.375
   02/06/2018 01:40:00      0.891     3.067     0.397     0.370
   02/06/2018 01:45:00      0.873     3.050     0.393     0.365
   02/06/2018 01:50:00      0.856     3.034     0.389     0.359
   02/06/2018 01:55:00      0.840     3.019     0.384     0.354
   02/06/2018 02:00:00      0.824     3.003     0.380     0.349
   02/06/2018 02:05:00      0.024     0.453     0.120     0.068
   02/06/2018 02:10:00      0.005     0.247     0.062     0.026
   02/06/2018 02:15:00      0.002     0.172     0.041     0.014
   02/06/2018 02:20:00      0.001     0.141     0.029     0.009
   02/06/2018 02:25:00      0.001     0.119     0.023     0.006
   02/06/2018 02:30:00      0.000     0.103     0.018     0.004
   02/06/2018 02:35:00      0.000     0.087     0.015     0.003
   02/06/2018 02:40:00      0.000     0.074     0.013     0.003
   02/06/2018 02:45:00      0.000     0.062     0.011     0.002
   02/06/2018 02:50:00      0.000     0.000     0.009     0.002
   02/06/2018 02:55:00      0.000     0.000     0.008     0.001
   02/06/2018 03:00:00      0.000     0.000     0.008     0.001
   02/06/2018 03:05:00      0.000     0.000     0.007     0.001
   02/06/2018 03:10:00      0.000     0.000     0.006     0.001
   02/06/2018 03:15:00      0.000     0.000     0.006     0.001
   02/06/2018 03:20:00      0.000     0.000     0.006     0.001
   02/06/2018 03:25:00      0.000     0.000     0.005     0.001
   02/06/2018 03:30:00      0.000     0.000     0.005     0.001
[...]
   02/06/2018 02:40:00      0.001     0.610     0.013     0.003
   02/06/2018 02:45:00      0.001     0.562     0.011     0.002
   02/06/2018 02:50:00      0.001     0.000     0.009     0.002
   02/06/2018 02:55:00      0.000     0.000     0.008     0.001
   02/06/2018 03:00:00      0.000     0.000     0.007     0.001
   02/06/2018 03:05:00      0.000     0.000     0.007     0.001
   02/06/2018 03:10:00      0.000     0.000     0.007     0.001
   02/06/2018 03:15:00      0.000     0.000     0.006     0.001
   02/06/2018 03:20:00      0.000     0.000     0.006     0.001
   02/06/2018 03:25:00      0.000     0.000     0.005     0.001
   02/06/2018 03:30:00      0.000     0.000     0.005     0.001
   02/06/2018 03:35:00      0.000     0.000     0.005     0.001
   02/06/2018 03:40:00      0.000     0.000     0.004     0.001
   02/06/2018 03:45:00      0.000     0.000     0.004     0.001
   02/06/2018 03:50:00      0.000     0.000     0.004     0.001
   02/06/2018 03:55:00      0.000     0.000     0.003     0.001
   02/06/2018 04:00:00      0.000     0.000     0.003     0.000
   02/06/2018 04:05:00      0.000     0.000     0.003     0.000
   02/06/2018 04:10:00      0.000     0.000     0.003     0.000
   02/06/2018 04:15:00      0.000     0.000     0.002     0.000
   02/06/2018 04:20:00      0.000     0.000     0.002     0.000
   02/06/2018 04:25:00      0.000     0.000     0.002     0.000
   02/06/2018 04:30:00      0.000     0.000     0.002     0.000
   02/06/2018 04:35:00      0.000     0.000     0.002     0.000
   02/06/2018 04:40:00      0.000     0.000     0.001     0.000
   02/06/2018 04:45:00      0.000     0.000     0.001     0.000
   02/06/2018 04:50:00      0.000     0.000     0.001     0.000
   02/06/2018 04:55:00      0.000     0.000     0.001     0.000
   02/06/2018 05:00:00      0.000     0.000     0.001     0.000
   02/06/2018 05:05:00      0.000     0.000     0.001     0.000
   02/06/2018 05:10:00      0.000     0.000     0.001     0.000
   02/06/2018 05:15:00      0.000     0.000     0.001     0.000
   02/06/2018 05:20:00      0.000     0.000     0.001     0.000
   02/06/2018 05:25:00      0.000     0.000     0.001     0.000
   02/06/2018 05:30:00      0.000     0.000     0.001     0.000
   02/06/2018 05:35:00      0.000     0.000     0.001     0.000
   02/06/2018 05:40:00      0.000     0.000     0.001     0.000
   02/06/2018 05:45:00      0.000     0.000     0.001     0.000
   02/06/2018 05:50:00      0.000     0.000     0.001     0.000
   02/06/2018 05:55:00      0.000     0.000     0.001     0.000
   02/06/2018 06:00:00      0.000     0.000     0.001     0.000
   02/06/2018 06:05:00      0.000     0.000     0.001     0.000
   02/06/2018 06:10:00      0.000     0.000     0.001     0.000
   02/06/2018 06:15:00      0.000     0.000     0.001     0.000
   02/06/2018 06:20:00      0.000     0.000     0.001     0.000
   02/06/2018 06:25:00      0.000     0.000     0.001     0.000
   02/06/2018 06:30:00      0.000     0.000     0.001     0.000
   02/06/2018 06:35:00      0.000     0.000     0.001     0.000
   02/06/2018 06:40:00      0.000     0.000     0.001     0.000
   02/06/2018 06:45:00      0.000     0.000     0.001     0.000
   02/06/2018 06:50:00      0.000     0.000     0.001     0.000
   02/06/2018 06:55:00      0.000     0.000     0.001     0.000
   02/06/2018 07:00:00      0.000     0.000     0.001     0.000
   02/06/2018 07:05:00      0.000     0.000     0.001     0.000
   02/06/2018 07:10:00      0.278     1.861     0.245     0.190
   02/06/2018 07:15:00      3.003     4.135     0.871     0.925
   02/06/2018 07:20:00      3.016     4.150     0.872     0.925
   02/06/2018 07:25:00      2.988     4.118     0.870     0.924
   02/06/2018 07:30:00      3.005     4.138     0.871     0.925
   02/06/2018 07:35:00      3.022     4.158     0.872     0.925
   02/06/2018 07:40:00      3.038     4.176     0.873     0.926
   02/06/2018 07:45:00      3.053     4.193     0.874     0.927
   02/06/2018 07:50:00      3.068     4.210     0.875     0.928
   02/06/2018 07:55:00      3.083     4.226     0.876     0.929
   02/06/2018 08:00:00      3.096     4.242     0.877     0.929
   02/06/2018 08:05:00      3.110     4.257     0.878     0.930
   02/06/2018 08:10:00      3.122     4.271     0.878     0.931
   02/06/2018 08:15:00      3.133     4.283     0.879     0.931
   02/06/2018 08:20:00      3.143     4.294     0.880     0.932
   02/06/2018 08:25:00      3.152     4.305     0.880     0.932
   02/06/2018 08:30:00      3.160     4.315     0.881     0.933
   02/06/2018 08:35:00      3.168     4.324     0.881     0.933
   02/06/2018 08:40:00      3.175     4.332     0.882     0.933
   02/06/2018 08:45:00      3.182     4.340     0.882     0.934
   02/06/2018 08:50:00      3.188     4.347     0.882     0.934
   02/06/2018 08:55:00      3.194     4.353     0.883     0.934
   02/06/2018 09:00:00      3.199     4.360     0.883     0.934
   02/06/2018 09:05:00      3.204     4.365     0.883     0.935
   02/06/2018 09:10:00      3.208     4.370     0.883     0.935
   02/06/2018 09:15:00      3.211     4.374     0.884     0.935
   02/06/2018 09:20:00      3.213     4.376     0.884     0.935
   02/06/2018 09:25:00      3.215     4.378     0.884     0.935
   02/06/2018 09:30:00      3.216     4.379     0.884     0.935
   02/06/2018 09:35:00      3.216     4.380     0.884     0.935
   02/06/2018 09:40:00      3.216     4.379     0.884     0.935
   02/06/2018 09:45:00      3.216     4.379     0.884     0.935
   02/06/2018 09:50:00      3.215     4.378     0.884     0.935
   02/06/2018 09:55:00      3.213     4.376     0.884     0.935
   02/06/2018 10:00:00      3.212     4.374     0.884     0.935
   02/06/2018 10:05:00      3.210     4.372     0.884     0.935
   02/06/2018 10:10:00      3.208     4.370     0.883     0.935
   02/06/2018 10:15:00      3.205     4.367     0.883     0.935
   02/06/2018 10:20:00      3.203     4.364     0.883     0.934
   02/06/2018 10:25:00      3.200     4.360     0.883     0.934
   02/06/2018 10:30:00      3.197     4.357     0.883     0.934
   02/06/2018 10:35:00      3.194     4.353     0.883     0.934
   02/06/2018 10:40:00      3.190     4.349     0.882     0.934
   02/06/2018 10:45:00      3.187     4.345     0.882     0.934
   02/06/2018 10:50:00      3.183     4.341     0.882     0.934
   02/06/2018 10:55:00      3.179     4.336     0.882     0.933
   02/06/2018 11:00:00      3.175     4.332     0.882     0.933
   02/06/2018 11:05:00      3.171     4.327     0.881     0.933
   02/06/2018 11:10:00      3.167     4.323     0.881     0.933
   02/06/2018 11:15:00      3.163     4.318     0.881     0.933
   02/06/2018 11:20:00      3.159     4.313     0.881     0.933
   02/06/2018 11:25:00      3.154     4.308     0.880     0.932
   02/06/2018 11:30:00      3.150     4.302     0.880     0.932
   02/06/2018 11:35:00      3.145     4.297     0.880     0.932
   02/06/2018 11:40:00      3.141     4.292     0.880     0.932
   02/06/2018 11:45:00      3.136     4.287     0.879     0.931
   02/06/2018 11:50:00      3.131     4.281     0.879     0.931
   02/06/2018 11:55:00      3.126     4.276     0.879     0.931
   02/06/2018 12:00:00      3.122     4.270     0.878     0.931
   02/06/2018 12:05:00      3.117     4.265     0.878     0.930
   02/06/2018 12:10:00      3.112     4.259     0.878     0.930
   02/06/2018 12:15:00      3.107     4.254     0.878     0.930
   02/06/2018 12:20:00      3.102     4.248     0.877     0.930
   02/06/2018 12:25:00      3.097     4.242     0.877     0.929
   02/06/2018 12:30:00      3.091     4.236     0.877     0.929
   02/06/2018 12:35:00      3.086     4.231     0.876     0.929
   02/06/2018 12:40:00      3.081     4.225     0.876     0.929
   02/06/2018 12:45:00      3.076     4.219     0.876     0.928
   02/06/2018 12:50:00      3.071     4.213     0.875     0.928
   02/06/2018 12:55:00      3.065     4.207     0.875     0.928
   02/06/2018 13:00:00      3.060     4.201     0.875     0.927
   02/06/2018 13:05:00      3.055     4.195     0.874     0.927
   02/06/2018 13:10:00      3.049     4.189     0.874     0.927
   02/06/2018 13:15:00      3.044     4.183     0.874     0.927
   02/06/2018 13:20:00      3.039     4.176     0.873     0.926
   02/06/2018 13:25:00      3.033     4.170     0.873     0.926
   02/06/2018 13:30:00      3.028     4.164     0.873     0.926
   02/06/2018 13:35:00      3.022     4.158     0.872     0.925
   02/06/2018 13:40:00      3.017     4.151     0.872     0.925
   02/06/2018 13:45:00      3.011     4.145     0.872     0.925
   02/06/2018 13:50:00      3.006     4.139     0.871     0.925
   02/06/2018 13:55:00      3.000     4.133     0.871     0.924
   02/06/2018 14:00:00      2.995     4.126     0.871     0.924
  
  
  <<< Link R1 >>>
  ----------------------------------------------------------------
                             Flow  Velocity     Depth  Capacity/
  Date        Time            CFS    ft/sec      feet   Setting 
  ----------------------------------------------------------------
   02/06/2018 00:05:00      1.324     0.000     1.000     1.000
   02/06/2018 00:10:00      1.295     0.000     1.000     1.000
   02/06/2018 00:15:00      1.266     0.000     1.000     1.000
   02/06/2018 00:20:00      1.239     0.000     1.000     1.000
   02/06/2018 00:25:00      1.212     0.000     1.000     1.000
   02/06/2018 00:30:00      1.186     0.000     1.000     1.000
   02/06/2018 00:35:00      1.161     0.000     1.000     1.000
   02/06/2018 00:40:00      1.136     0.000     1.000     1.000
   02/06/2018 00:45:00      1.112     0.000     1.000     1.000
   02/06/2018 00:50:00      1.089     0.000     1.000     1.000
   02/06/2018 00:55:00      1.066     0.000     1.000     1.000
   02/06/2018 01:00:00      1.044     0.000     1.000     1.000
   02/06/2018 01:05:00      1.023     0.000     1.000     1.000
   02/06/2018 01:10:00      1.002     0.000     1.000     1.000
   02/06/2018 01:15:00      0.982     0.000     1.000     1.000
   02/06/2018 01:20:00      0.962     0.000     1.000     1.000
   02/06/2018 01:25:00      0.943     0.000     1.000     1.000
   02/06/2018 01:30:00      0.924     0.000     1.000     1.000
   02/06/2018 01:35:00      0.906     0.000     1.000     1.000
   02/06/2018 01:40:00      0.888     0.000     1.000     1.000
   02/06/2018 01:45:00      0.871     0.000     1.000     1.000
   02/06/2018 01:50:00      0.854     0.000     1.000     1.000
   02/06/2018 01:55:00      0.838     0.000     1.000     1.000
   02/06/2018 02:00:00      0.822     0.000     1.000     1.000
   02/06/2018 02:05:00      0.000     0.000     1.000     0.000
   02/06/2018 02:10:00      0.000     0.000     1.000     0.000
   02/06/2018 02:15:00      0.000     0.000     1.000     0.000
   02/06/2018 02:20:00      0.000     0.000     1.000     0.000
   02/06/2018 02:25:00      0.000     0.000     1.000     0.000
   02/06/2018 02:30:00      0.000     0.000     1.000     0.000
   02/06/2018 02:35:00      0.000     0.000     1.000     0.000
   02/06/2018 02:40:00      0.000     0.000     1.000     0.000
   02/06/2018 02:45:00      0.000     0.000     1.000     0.000
   02/06/2018 02:50:00      0.000     0.000     1.000     0.000
   02/06/2018 02:55:00      0.000     0.000     1.000     0.000
   02/06/2018 03:00:00      0.000     0.000     1.000     0.000
   02/06/2018 03:05:00      0.000     0.000     1.000     0.000
   02/06/2018 03:10:00      0.000     0.000     1.000     0.000
   02/06/2018 03:15:00      0.000     0.000     1.000     0.000
   02/06/2018 03:20:00      0.000     0.000     1.000     0.000
   02/06/2018 03:25:00      0.000     0.000     1.000     0.000
   02/06/2018 03:30:00      0.000     0.000     1.000     0.000
   02/06/2018 03:35:00      0.000     0.000     1.000     0.000
   02/06/2018 03:40:00      0.000     0.000     1.000     0.000
   02/06/2018 03:45:00      0.000     0.000     1.000     0.000
   02/06/2018 03:50:00      0.000     0.000     1.000     0.000
   02/06/2018 03:55:00      0.000     0.000     1.000     0.000
   02/06/2018 04:00:00      0.000     0.000     1.000     0.000
   02/06/2018 04:05:00      0.000     0.000     1.000     0.000
   02/06/2018 04:10:00      0.000     0.000     1.000     0.000
   02/06/2018 04:15:00      0.000     0.000     1.000     0.000
   02/06/2018 04:20:00      0.000     0.000     1.000     0.000
   02/06/2018 04:25:00      0.000     0.000     1.000     0.000
   02/06/2018 04:30:00      0.000     0.000     1.000     0.000
   02/06/2018 04:35:00      0.000     0.000     1.000     0.000
   02/06/2018 04:40:00      0.000     0.000     1.000     0.000
   02/06/2018 04:45:00      0.000     0.000     1.000     0.000
   02/06/2018 04:50:00      0.000     0.000     1.000     0.000
   02/06/2018 04:55:00      0.000     0.000     1.000     0.000
   02/06/2018 05:00:00      0.000     0.000     1.000     0.000
   02/06/2018 05:05:00      0.000     0.000     1.000     0.000
   02/06/2018 05:10:00      0.000     0.000     1.000     0.000
   02/06/2018 05:15:00      0.000     0.000     1.000     0.000
   02/06/2018 05:20:00      0.000     0.000     1.000     0.000
   02/06/2018 05:25:00      0.000     0.000     1.000     0.000
   02/06/2018 05:30:00      0.000     0.000     1.000     0.000
   02/06/2018 05:35:00      0.000     0.000     1.000     0.000
   02/06/2018 05:40:00      0.000     0.000     1.000     0.000
   02/06/2018 05:45:00      0.000     0.000     1.000     0.000
   02/06/2018 05:50:00      0.000     0.000     1.000     0.000
   02/06/2018 05:55:00      0.000     0.000     1.000     0.000
   02/06/2018 06:00:00      0.000     0.000     1.000     0.000
   02/06/2018 06:05:00      0.000     0.000     1.000     0.000
   02/06/2018 06:10:00      0.000     0.000     1.000     0.000
   02/06/2018 06:15:00      0.000     0.000     1.000     0.000
   02/06/2018 06:20:00      0.000     0.000     1.000     0.000
   02/06/2018 06:25:00      0.000     0.000     1.000     0.000
   02/06/2018 06:30:00      0.000     0.000     1.000     0.000
   02/06/2018 06:35:00      0.000     0.000     1.000     0.000
   02/06/2018 06:40:00      0.000     0.000     1.000     0.000
   02/06/2018 06:45:00      0.000     0.000     1.000     0.000
   02/06/2018 06:50:00      0.000     0.000     1.000     0.000
   02/06/2018 06:55:00      0.000     0.000     1.000     0.000
   02/06/2018 07:00:00      0.000     0.000     1.000     0.000
   02/06/2018 07:05:00      0.000     0.000     1.000     0.000
   02/06/2018 07:10:00      2.898     0.000     0.500     0.500
   02/06/2018 07:15:00      3.054     0.000     0.500     0.500
   02/06/2018 07:20:00      3.044     0.000     0.500     0.500
   02/06/2018 07:25:00      2.990     0.000     0.500     0.500
   02/06/2018 07:30:00      3.007     0.000     0.500     0.500
   02/06/2018 07:35:00      3.024     0.000     0.500     0.500
   02/06/2018 07:40:00      3.039     0.000     0.500     0.500
   02/06/2018 07:45:00      3.055     0.000     0.500     0.500
   02/06/2018 07:50:00      3.069     0.000     0.500     0.500
   02/06/2018 07:55:00      3.084     0.000     0.500     0.500
   02/06/2018 08:00:00      3.098     0.000     0.500     0.500
   02/06/2018 08:05:00      3.111     0.000     0.500     0.500
   02/06/2018 08:10:00      3.123     0.000     0.500     0.500
   02/06/2018 08:15:00      3.134     0.000     0.500     0.500
   02/06/2018 08:20:00      3.144     0.000     0.500     0.500
   02/06/2018 08:25:00      3.153     0.000     0.500     0.500
   02/06/2018 08:30:00      3.161     0.000     0.500     0.500
   02/06/2018 08:35:00      3.169     0.000     0.500     0.500
   02/06/2018 08:40:00      3.176     0.000     0.500     0.500
   02/06/2018 08:45:00      3.182     0.000     0.500     0.500
   02/06/2018 08:50:00      3.188     0.000     0.500     0.500
   02/06/2018 08:55:00      3.194     0.000     0.500     0.500
   02/06/2018 09:00:00      3.200     0.000     0.500     0.500
   02/06/2018 09:05:00      3.205     0.000     0.500     0.500
   02/06/2018 09:10:00      3.208     0.000     0.500     0.500
   02/06/2018 09:15:00      3.211     0.000     0.500     0.500
   02/06/2018 09:20:00      3.214     0.000     0.500     0.500
   02/06/2018 09:25:00      3.215     0.000     0.500     0.500
   02/06/2018 09:30:00      3.216     0.000     0.500     0.500
   02/06/2018 09:35:00      3.216     0.000     0.500     0.500
   02/06/2018 09:40:00      3.216     0.000     0.500     0.500
   02/06/2018 09:45:00      3.216     0.000     0.500     0.500
   02/06/2018 09:50:00      3.215     0.000     0.500     0.500
   02/06/2018 09:55:00      3.213     0.000     0.500     0.500
   02/06/2018 10:00:00      3.212     0.000     0.500     0.500
   02/06/2018 10:05:00      3.210     0.000     0.500     0.500
   02/06/2018 10:10:00      3.208     0.000     0.500     0.500
   02/06/2018 10:15:00      3.205     0.000     0.500     0.500
   02/06/2018 10:20:00      3.202     0.000     0.500     0.500
   02/06/2018 10:25:00      3.200     0.000     0.500     0.500
   02/06/2018 10:30:00      3.196     0.000     0.500     0.500
   02/06/2018 10:35:00      3.193     0.000     0.500     0.500
   02/06/2018 10:40:00      3.190     0.000     0.500     0.500
   02/06/2018 10:45:00      3.186     0.000     0.500     0.500
   02/06/2018 10:50:00      3.183     0.000     0.500     0.500
   02/06/2018 10:55:00      3.179     0.000     0.500     0.500
   02/06/2018 11:00:00      3.175     0.000     0.500     0.500
   02/06/2018 11:05:00      3.171     0.000     0.500     0.500
   02/06/2018 11:10:00      3.167     0.000     0.500     0.500
   02/06/2018 11:15:00      3.163     0.000     0.500     0.500
   02/06/2018 11:20:00      3.158     0.000     0.500     0.500
   02/06/2018 11:25:00      3.154     0.000     0.500     0.500
   02/06/2018 11:30:00      3.149     0.000     0.500     0.500
   02/06/2018 11:35:00      3.145     0.000     0.500     0.500
   02/06/2018 11:40:00      3.140     0.000     0.500     0.500
   02/06/2018 11:45:00      3.136     0.000     0.500     0.500
   02/06/2018 11:50:00      3.131     0.000     0.500     0.500
   02/06/2018 11:55:00      3.126     0.000     0.500     0.500
   02/06/2018 12:00:00      3.121     0.000     0.500     0.500
   02/06/2018 12:05:00      3.116     0.000     0.500     0.500
   02/06/2018 12:10:00      3.111     0.000     0.500     0.500
   02/06/2018 12:15:00      3.106     0.000     0.500     0.500
   02/06/2018 12:20:00      3.101     0.000     0.500     0.500
   02/06/2018 12:25:00      3.096     0.000     0.500     0.500
   02/06/2018 12:30:00      3.091     0.000     0.500     0.500
   02/06/2018 12:35:00      3.086     0.000     0.500     0.500
   02/06/2018 12:40:00      3.081     0.000     0.500     0.500
   02/06/2018 12:45:00      3.075     0.000     0.500     0.500
   02/06/2018 12:50:00      3.070     0.000     0.500     0.500
   02/06/2018 12:55:00      3.065     0.000     0.500     0.500
   02/06/2018 13:00:00      3.060     0.000     0.500     0.500
   02/06/2018 13:05:00      3.054     0.000     0.500     0.500
   02/06/2018 13:10:00      3.049     0.000     0.500     0.500
   02/06/2018 13:15:00      3.043     0.000     0.500     0.500
   02/06/2018 13:20:00      3.038     0.000     0.500     0.500
   02/06/2018 13:25:00      3.033     0.000     0.500     0.500
   02/06/2018 13:30:00      3.027     0.000     0.500     0.500
   02/06/2018 13:35:00      3.022     0.000     0.500     0.500
   02/06/2018 13:40:00      3.016     0.000     0.500     0.500
   02/06/2018 13:45:00      3.011     0.000     0.500     0.500
   02/06/2018 13:50:00      3.005     0.000     0.500     0.500
   02/06/2018 13:55:00      2.999     0.000     0.500     0.500
   02/06/2018 14:00:00      2.994     0.000     0.500     0.500
  
  
  ERROR 309: error writing to binary results file.

  Analysis begun on:  Mon Feb 12 09:28:02 2018
  Analysis ended on:  Mon Feb 12 09:28:03 2018
  Total elapsed time: 00:00:01