
  EPA STORM WATER MANAGEMENT MODEL - VERSION 5.1 (Build 5.1.012)
  --------------------------------------------------------------

  
  ERROR 335: error in reading from hotstart interface file.

  Analysis begun on:  Fri Apr 20 16:38:05 2018
  Analysis ended on:  Fri Apr 20 16:38:05 2018
  Total elapsed time: < 1 sec